C3080-P97
     RDKit          3D

 36 37  0  0  0  0  0  0  0  0999 V2000
   17.1732   -3.8003   15.2963 C   0  0  0  0  0  0  0  0  0  0  0  0
   17.0562   -2.2953   15.2047 C   0  0  0  0  0  0  0  0  0  0  0  0
   17.3596   -1.5796   16.0743 O   0  0  0  0  0  0  0  0  0  0  0  0
   16.4746   -1.9816   13.8020 N   0  0  0  0  0  0  0  0  0  0  0  0
   16.2346   -0.7058   13.1420 C   0  0  0  0  0  0  0  0  0  0  0  0
   14.7548   -0.1804   13.1348 C   0  0  0  0  0  0  0  0  0  0  0  0
   13.9639   -1.0932   12.3384 O   0  0  0  0  0  0  0  0  0  0  0  0
   14.1780   -0.0696   14.5392 C   0  0  0  0  0  0  0  0  0  0  0  0
   14.1529    1.0587   15.3355 C   0  0  0  0  0  0  0  0  0  0  0  0
   14.1563    0.6460   16.6325 N   0  0  0  0  0  0  0  0  0  0  0  0
   14.0481   -0.7115   16.6887 C   0  0  0  0  0  0  0  0  0  0  0  0
   14.2248   -1.5703   17.7710 C   0  0  0  0  0  0  0  0  0  0  0  0
   13.8927   -2.9031   17.6098 C   0  0  0  0  0  0  0  0  0  0  0  0
   13.3784   -3.3218   16.4096 C   0  0  0  0  0  0  0  0  0  0  0  0
   12.9869   -4.5948   16.3479 F   0  0  0  0  0  0  0  0  0  0  0  0
   13.3114   -2.4750   15.2896 C   0  0  0  0  0  0  0  0  0  0  0  0
   13.7467   -1.1428   15.4073 C   0  0  0  0  0  0  0  0  0  0  0  0
   14.9432    1.5253   12.2709 S   0  0  0  0  0  0  0  0  0  0  0  0
   13.2991    1.8615   11.7139 C   0  0  0  0  0  0  0  0  0  0  0  0
   15.2953    2.5898   13.1953 O   0  0  0  0  0  0  0  0  0  0  0  0
   15.7662    1.3610   11.0836 O   0  0  0  0  0  0  0  0  0  0  0  0
   17.7097   -4.0657   16.2121 H   0  0  0  0  0  0  0  0  0  0  0  0
   17.7377   -4.1892   14.4448 H   0  0  0  0  0  0  0  0  0  0  0  0
   16.1794   -4.2496   15.3310 H   0  0  0  0  0  0  0  0  0  0  0  0
   16.2478   -2.8519   13.3254 H   0  0  0  0  0  0  0  0  0  0  0  0
   16.5870   -0.8497   12.1149 H   0  0  0  0  0  0  0  0  0  0  0  0
   16.8871    0.0235   13.6358 H   0  0  0  0  0  0  0  0  0  0  0  0
   14.1986   -1.9837   12.6489 H   0  0  0  0  0  0  0  0  0  0  0  0
   14.3400    2.1064   15.1507 H   0  0  0  0  0  0  0  0  0  0  0  0
   14.3512    1.2419   17.4262 H   0  0  0  0  0  0  0  0  0  0  0  0
   14.5828   -1.2042   18.7299 H   0  0  0  0  0  0  0  0  0  0  0  0
   13.9765   -3.5990   18.4387 H   0  0  0  0  0  0  0  0  0  0  0  0
   12.9115   -2.8362   14.3514 H   0  0  0  0  0  0  0  0  0  0  0  0
   12.6251    1.8732   12.5717 H   0  0  0  0  0  0  0  0  0  0  0  0
   13.0049    1.0954   11.0006 H   0  0  0  0  0  0  0  0  0  0  0  0
   13.2956    2.8386   11.2261 H   0  0  0  0  0  0  0  0  0  0  0  0
  1  2  1  0
  2  3  2  0
  2  4  1  0
  4  5  1  0
  5  6  1  0
  6  7  1  0
  6  8  1  0
  8  9  2  0
  9 10  1  0
 10 11  1  0
 11 12  2  0
 12 13  1  0
 13 14  2  0
 14 15  1  0
 14 16  1  0
 16 17  2  0
  6 18  1  0
 18 19  1  0
 18 20  2  0
 18 21  2  0
 17  8  1  0
 17 11  1  0
  1 22  1  0
  1 23  1  0
  1 24  1  0
  4 25  1  0
  5 26  1  0
  5 27  1  0
  7 28  1  0
  9 29  1  0
 10 30  1  0
 12 31  1  0
 13 32  1  0
 16 33  1  0
 19 34  1  0
 19 35  1  0
 19 36  1  0
M  END
>  <Energy>  (1) 
124.06140596531742

>  <compound_id>  (1) 
3080

>  <target_id>  (1) 
1

>  <reference_id>  (1) 
97

>  <inspiration_ids>  (1) 
[97, 111]

>  <energy_score>  (1) 
-22.56414693862382

>  <distance_score>  (1) 
2.1198413692976286

>  <path>  (1) 
/opt/xchem-fragalysis-2/maxwin/BulkDock/SCRATCH/505734/C3080-P97/C3080-P97.minimised.mol

>  <scratch_subdir>  (1) 
/opt/xchem-fragalysis-2/maxwin/BulkDock/SCRATCH/505734/C3080-P97

>  <fragmenstein_runtime>  (1) 
1.8320434093475342

>  <fragmenstein_outcome>  (1) 
too moved

>  <fragmenstein_mode>  (1) 
expansion

>  <fragmenstein_error>  (1) 


$$$$
C3080-P111
     RDKit          3D

 36 37  0  0  0  0  0  0  0  0999 V2000
   19.8390    0.4662   14.5558 C   0  0  0  0  0  0  0  0  0  0  0  0
   18.6849   -0.4626   14.8627 C   0  0  0  0  0  0  0  0  0  0  0  0
   18.7156   -1.2710   15.7016 O   0  0  0  0  0  0  0  0  0  0  0  0
   17.5645   -0.1022   13.8581 N   0  0  0  0  0  0  0  0  0  0  0  0
   16.2085   -0.6020   13.7412 C   0  0  0  0  0  0  0  0  0  0  0  0
   15.1081    0.4108   14.1971 C   0  0  0  0  0  0  0  0  0  0  0  0
   15.4721    0.9333   15.5037 O   0  0  0  0  0  0  0  0  0  0  0  0
   13.7497   -0.2745   14.3447 C   0  0  0  0  0  0  0  0  0  0  0  0
   12.5245    0.0504   13.7874 C   0  0  0  0  0  0  0  0  0  0  0  0
   11.6346   -0.9571   14.0515 N   0  0  0  0  0  0  0  0  0  0  0  0
   12.1916   -1.8503   14.9259 C   0  0  0  0  0  0  0  0  0  0  0  0
   11.6404   -3.0064   15.4778 C   0  0  0  0  0  0  0  0  0  0  0  0
   12.4050   -3.6974   16.4152 C   0  0  0  0  0  0  0  0  0  0  0  0
   13.6645   -3.2491   16.7708 C   0  0  0  0  0  0  0  0  0  0  0  0
   14.3507   -3.9273   17.7004 F   0  0  0  0  0  0  0  0  0  0  0  0
   14.2303   -2.1234   16.1711 C   0  0  0  0  0  0  0  0  0  0  0  0
   13.4840   -1.4091   15.2043 C   0  0  0  0  0  0  0  0  0  0  0  0
   15.1165    1.7959   12.9072 S   0  0  0  0  0  0  0  0  0  0  0  0
   14.3926    1.1613   11.4089 C   0  0  0  0  0  0  0  0  0  0  0  0
   14.2573    2.8649   13.3922 O   0  0  0  0  0  0  0  0  0  0  0  0
   16.4968    2.1095   12.5631 O   0  0  0  0  0  0  0  0  0  0  0  0
   19.5371    1.5035   14.7247 H   0  0  0  0  0  0  0  0  0  0  0  0
   20.1635    0.3316   13.5203 H   0  0  0  0  0  0  0  0  0  0  0  0
   20.6784    0.2336   15.2175 H   0  0  0  0  0  0  0  0  0  0  0  0
   17.8435    0.7162   13.3149 H   0  0  0  0  0  0  0  0  0  0  0  0
   16.0628   -0.9148   12.7032 H   0  0  0  0  0  0  0  0  0  0  0  0
   16.1862   -1.5056   14.3553 H   0  0  0  0  0  0  0  0  0  0  0  0
   14.9613    1.7575   15.6068 H   0  0  0  0  0  0  0  0  0  0  0  0
   12.1908    0.8841   13.1876 H   0  0  0  0  0  0  0  0  0  0  0  0
   10.6902   -1.0406   13.6785 H   0  0  0  0  0  0  0  0  0  0  0  0
   10.6590   -3.3630   15.1849 H   0  0  0  0  0  0  0  0  0  0  0  0
   12.0177   -4.6010   16.8721 H   0  0  0  0  0  0  0  0  0  0  0  0
   15.2308   -1.8144   16.4627 H   0  0  0  0  0  0  0  0  0  0  0  0
   14.7540    0.1500   11.2249 H   0  0  0  0  0  0  0  0  0  0  0  0
   14.7153    1.8095   10.5895 H   0  0  0  0  0  0  0  0  0  0  0  0
   13.3076    1.1897   11.4557 H   0  0  0  0  0  0  0  0  0  0  0  0
  1  2  1  0
  2  3  2  0
  2  4  1  0
  4  5  1  0
  5  6  1  0
  6  7  1  0
  6  8  1  0
  8  9  2  0
  9 10  1  0
 10 11  1  0
 11 12  2  0
 12 13  1  0
 13 14  2  0
 14 15  1  0
 14 16  1  0
 16 17  2  0
  6 18  1  0
 18 19  1  0
 18 20  2  0
 18 21  2  0
 17  8  1  0
 17 11  1  0
  1 22  1  0
  1 23  1  0
  1 24  1  0
  4 25  1  0
  5 26  1  0
  5 27  1  0
  7 28  1  0
  9 29  1  0
 10 30  1  0
 12 31  1  0
 13 32  1  0
 16 33  1  0
 19 34  1  0
 19 35  1  0
 19 36  1  0
M  END
>  <Energy>  (2) 
113.98050254399408

>  <compound_id>  (2) 
3080

>  <target_id>  (2) 
1

>  <reference_id>  (2) 
111

>  <inspiration_ids>  (2) 
[97, 111]

>  <energy_score>  (2) 
-32.64505035994745

>  <distance_score>  (2) 
1.7383854984945863

>  <path>  (2) 
/opt/xchem-fragalysis-2/maxwin/BulkDock/SCRATCH/505734/C3080-P111/C3080-P111.minimised.mol

>  <scratch_subdir>  (2) 
/opt/xchem-fragalysis-2/maxwin/BulkDock/SCRATCH/505734/C3080-P111

>  <fragmenstein_runtime>  (2) 
1.559319019317627

>  <fragmenstein_outcome>  (2) 
too moved

>  <fragmenstein_mode>  (2) 
expansion

>  <fragmenstein_error>  (2) 


$$$$
C3081-P97
     RDKit          3D

 50 52  0  0  0  0  0  0  0  0999 V2000
   18.6572    0.8201   14.7946 C   0  0  0  0  0  0  0  0  0  0  0  0
   17.9499    1.3485   13.5643 C   0  0  0  0  0  0  0  0  0  0  0  0
   18.5342    1.3902   12.5217 O   0  0  0  0  0  0  0  0  0  0  0  0
   16.6196    1.7478   13.9069 N   0  0  0  0  0  0  0  0  0  0  0  0
   15.5381    2.2355   13.0877 C   0  0  0  0  0  0  0  0  0  0  0  0
   14.1538    1.9219   13.6555 C   0  0  0  0  0  0  0  0  0  0  0  0
   13.9383    0.4635   13.9176 C   0  0  0  0  0  0  0  0  0  0  0  0
   13.7200   -0.4772   12.9348 C   0  0  0  0  0  0  0  0  0  0  0  0
   13.5158   -1.6883   13.5261 N   0  0  0  0  0  0  0  0  0  0  0  0
   13.7285   -1.5937   14.8808 C   0  0  0  0  0  0  0  0  0  0  0  0
   13.6942   -2.5899   15.8652 C   0  0  0  0  0  0  0  0  0  0  0  0
   14.0234   -2.2364   17.1653 C   0  0  0  0  0  0  0  0  0  0  0  0
   14.2555   -0.9092   17.4873 C   0  0  0  0  0  0  0  0  0  0  0  0
   14.4692   -0.6217   18.7781 F   0  0  0  0  0  0  0  0  0  0  0  0
   14.1952    0.1008   16.5227 C   0  0  0  0  0  0  0  0  0  0  0  0
   14.0976    1.5102   16.9350 C   0  0  0  0  0  0  0  0  0  0  0  0
   12.9842    1.8919   17.1791 O   0  0  0  0  0  0  0  0  0  0  0  0
   15.3265    2.2181   16.8871 N   0  0  0  0  0  0  0  0  0  0  0  0
   16.0029    2.1891   18.2552 C   0  0  0  0  0  0  0  0  0  0  0  0
   17.5317    2.3164   18.2560 C   0  0  0  0  0  0  0  0  0  0  0  0
   17.9812    3.7055   17.8292 C   0  0  0  0  0  0  0  0  0  0  0  0
   18.0009    4.6982   18.9986 C   0  0  0  0  0  0  0  0  0  0  0  0
   16.7199    4.8419   19.5876 O   0  0  0  0  0  0  0  0  0  0  0  0
   17.0429    4.1449   16.7194 C   0  0  0  0  0  0  0  0  0  0  0  0
   15.6173    3.6883   17.0148 C   0  0  0  0  0  0  0  0  0  0  0  0
   13.9849   -0.2465   15.1671 C   0  0  0  0  0  0  0  0  0  0  0  0
   19.4963    0.1888   14.4868 H   0  0  0  0  0  0  0  0  0  0  0  0
   19.0386    1.6597   15.3805 H   0  0  0  0  0  0  0  0  0  0  0  0
   17.9861    0.2077   15.4039 H   0  0  0  0  0  0  0  0  0  0  0  0
   16.4900    1.6431   14.9107 H   0  0  0  0  0  0  0  0  0  0  0  0
   15.6609    1.8059   12.0871 H   0  0  0  0  0  0  0  0  0  0  0  0
   15.6667    3.3190   12.9941 H   0  0  0  0  0  0  0  0  0  0  0  0
   13.9804    2.5105   14.5577 H   0  0  0  0  0  0  0  0  0  0  0  0
   13.3979    2.2657   12.9372 H   0  0  0  0  0  0  0  0  0  0  0  0
   13.6852   -0.3731   11.8595 H   0  0  0  0  0  0  0  0  0  0  0  0
   13.2986   -2.5421   13.0305 H   0  0  0  0  0  0  0  0  0  0  0  0
   13.4326   -3.6168   15.6465 H   0  0  0  0  0  0  0  0  0  0  0  0
   14.0408   -2.9888   17.9491 H   0  0  0  0  0  0  0  0  0  0  0  0
   15.4711    2.7392   19.0492 H   0  0  0  0  0  0  0  0  0  0  0  0
   15.8546    1.1588   18.6030 H   0  0  0  0  0  0  0  0  0  0  0  0
   17.9299    2.0655   19.2461 H   0  0  0  0  0  0  0  0  0  0  0  0
   17.9416    1.5749   17.5604 H   0  0  0  0  0  0  0  0  0  0  0  0
   19.0057    3.6527   17.4403 H   0  0  0  0  0  0  0  0  0  0  0  0
   18.6977    4.3566   19.7716 H   0  0  0  0  0  0  0  0  0  0  0  0
   18.3335    5.6831   18.6534 H   0  0  0  0  0  0  0  0  0  0  0  0
   16.8088    5.4834   20.3152 H   0  0  0  0  0  0  0  0  0  0  0  0
   17.3743    3.7061   15.7717 H   0  0  0  0  0  0  0  0  0  0  0  0
   17.0742    5.2325   16.5858 H   0  0  0  0  0  0  0  0  0  0  0  0
   15.0375    4.0839   16.1647 H   0  0  0  0  0  0  0  0  0  0  0  0
   15.0975    4.2042   17.8382 H   0  0  0  0  0  0  0  0  0  0  0  0
  1  2  1  0
  2  3  2  0
  2  4  1  0
  4  5  1  0
  5  6  1  0
  6  7  1  0
  7  8  2  0
  8  9  1  0
  9 10  1  0
 10 11  2  0
 11 12  1  0
 12 13  2  0
 13 14  1  0
 13 15  1  0
 15 16  1  0
 16 17  2  0
 16 18  1  0
 18 19  1  0
 19 20  1  0
 20 21  1  0
 21 22  1  0
 22 23  1  0
 21 24  1  0
 24 25  1  0
 15 26  2  0
 26  7  1  0
 26 10  1  0
 25 18  1  0
  1 27  1  0
  1 28  1  0
  1 29  1  0
  4 30  1  0
  5 31  1  0
  5 32  1  0
  6 33  1  0
  6 34  1  0
  8 35  1  0
  9 36  1  0
 11 37  1  0
 12 38  1  0
 19 39  1  0
 19 40  1  0
 20 41  1  0
 20 42  1  0
 21 43  1  0
 22 44  1  0
 22 45  1  0
 23 46  1  0
 24 47  1  0
 24 48  1  0
 25 49  1  0
 25 50  1  0
M  END
>  <Energy>  (3) 
87.79203898174832

>  <compound_id>  (3) 
3081

>  <target_id>  (3) 
1

>  <reference_id>  (3) 
97

>  <inspiration_ids>  (3) 
[97, 113]

>  <energy_score>  (3) 
27.415407164546536

>  <distance_score>  (3) 
2.7713458961225577

>  <path>  (3) 
/opt/xchem-fragalysis-2/maxwin/BulkDock/SCRATCH/505734/C3081-P97/C3081-P97.minimised.mol

>  <scratch_subdir>  (3) 
/opt/xchem-fragalysis-2/maxwin/BulkDock/SCRATCH/505734/C3081-P97

>  <fragmenstein_runtime>  (3) 
5.683035135269165

>  <fragmenstein_outcome>  (3) 
too moved

>  <fragmenstein_mode>  (3) 
expansion

>  <fragmenstein_error>  (3) 


$$$$
C3081-P113
     RDKit          3D

 50 52  0  0  0  0  0  0  0  0999 V2000
   18.9133    0.6920   11.1555 C   0  0  0  0  0  0  0  0  0  0  0  0
   17.4768    0.9213   10.7322 C   0  0  0  0  0  0  0  0  0  0  0  0
   17.0821    0.4869    9.6898 O   0  0  0  0  0  0  0  0  0  0  0  0
   16.8069    1.6886   11.7411 N   0  0  0  0  0  0  0  0  0  0  0  0
   15.4223    2.0970   11.8610 C   0  0  0  0  0  0  0  0  0  0  0  0
   14.7370    1.5762   13.1317 C   0  0  0  0  0  0  0  0  0  0  0  0
   14.2430    0.1606   13.0937 C   0  0  0  0  0  0  0  0  0  0  0  0
   14.7204   -0.8335   12.2609 C   0  0  0  0  0  0  0  0  0  0  0  0
   14.0048   -1.9694   12.4736 N   0  0  0  0  0  0  0  0  0  0  0  0
   13.0356   -1.7393   13.4148 C   0  0  0  0  0  0  0  0  0  0  0  0
   12.0304   -2.6121   13.8338 C   0  0  0  0  0  0  0  0  0  0  0  0
   11.2123   -2.2128   14.8718 C   0  0  0  0  0  0  0  0  0  0  0  0
   11.3557   -0.9491   15.4138 C   0  0  0  0  0  0  0  0  0  0  0  0
   10.5465   -0.6355   16.4350 F   0  0  0  0  0  0  0  0  0  0  0  0
   12.3008   -0.0216   14.9323 C   0  0  0  0  0  0  0  0  0  0  0  0
   12.2370    1.3488   15.5123 C   0  0  0  0  0  0  0  0  0  0  0  0
   11.1366    1.8236   15.6196 O   0  0  0  0  0  0  0  0  0  0  0  0
   13.5106    1.8841   15.8461 N   0  0  0  0  0  0  0  0  0  0  0  0
   13.8798    1.5092   17.2754 C   0  0  0  0  0  0  0  0  0  0  0  0
   15.3920    1.3804   17.5231 C   0  0  0  0  0  0  0  0  0  0  0  0
   16.1012    2.7288   17.4530 C   0  0  0  0  0  0  0  0  0  0  0  0
   16.1292    3.4486   18.8063 C   0  0  0  0  0  0  0  0  0  0  0  0
   14.8185    3.7478   19.2479 O   0  0  0  0  0  0  0  0  0  0  0  0
   15.4044    3.5545   16.3814 C   0  0  0  0  0  0  0  0  0  0  0  0
   13.9041    3.2537   16.3345 C   0  0  0  0  0  0  0  0  0  0  0  0
   13.1921   -0.4315   13.8994 C   0  0  0  0  0  0  0  0  0  0  0  0
   19.4484    0.1586   10.3642 H   0  0  0  0  0  0  0  0  0  0  0  0
   19.4127    1.6499   11.3268 H   0  0  0  0  0  0  0  0  0  0  0  0
   18.9399    0.0861   12.0656 H   0  0  0  0  0  0  0  0  0  0  0  0
   17.4300    1.8112   12.5309 H   0  0  0  0  0  0  0  0  0  0  0  0
   14.8837    1.7976   10.9556 H   0  0  0  0  0  0  0  0  0  0  0  0
   15.4440    3.1917   11.8955 H   0  0  0  0  0  0  0  0  0  0  0  0
   15.4245    1.6746   13.9769 H   0  0  0  0  0  0  0  0  0  0  0  0
   13.8735    2.2288   13.3019 H   0  0  0  0  0  0  0  0  0  0  0  0
   15.4978   -0.8303   11.5100 H   0  0  0  0  0  0  0  0  0  0  0  0
   14.1446   -2.8511   11.9957 H   0  0  0  0  0  0  0  0  0  0  0  0
   11.8812   -3.5751   13.3568 H   0  0  0  0  0  0  0  0  0  0  0  0
   10.4335   -2.8781   15.2194 H   0  0  0  0  0  0  0  0  0  0  0  0
   13.3005    1.9998   18.0747 H   0  0  0  0  0  0  0  0  0  0  0  0
   13.5198    0.4725   17.3799 H   0  0  0  0  0  0  0  0  0  0  0  0
   15.5758    0.8896   18.4858 H   0  0  0  0  0  0  0  0  0  0  0  0
   15.8116    0.7217   16.7508 H   0  0  0  0  0  0  0  0  0  0  0  0
   17.1475    2.5677   17.1641 H   0  0  0  0  0  0  0  0  0  0  0  0
   16.6178    2.8237   19.5615 H   0  0  0  0  0  0  0  0  0  0  0  0
   16.6886    4.3868   18.7262 H   0  0  0  0  0  0  0  0  0  0  0  0
   14.8904    4.1747   20.1197 H   0  0  0  0  0  0  0  0  0  0  0  0
   15.8477    3.3187   15.4075 H   0  0  0  0  0  0  0  0  0  0  0  0
   15.5693    4.6269   16.5385 H   0  0  0  0  0  0  0  0  0  0  0  0
   13.5351    3.8806   15.5061 H   0  0  0  0  0  0  0  0  0  0  0  0
   13.3000    3.6691   17.1582 H   0  0  0  0  0  0  0  0  0  0  0  0
  1  2  1  0
  2  3  2  0
  2  4  1  0
  4  5  1  0
  5  6  1  0
  6  7  1  0
  7  8  2  0
  8  9  1  0
  9 10  1  0
 10 11  2  0
 11 12  1  0
 12 13  2  0
 13 14  1  0
 13 15  1  0
 15 16  1  0
 16 17  2  0
 16 18  1  0
 18 19  1  0
 19 20  1  0
 20 21  1  0
 21 22  1  0
 22 23  1  0
 21 24  1  0
 24 25  1  0
 15 26  2  0
 26  7  1  0
 26 10  1  0
 25 18  1  0
  1 27  1  0
  1 28  1  0
  1 29  1  0
  4 30  1  0
  5 31  1  0
  5 32  1  0
  6 33  1  0
  6 34  1  0
  8 35  1  0
  9 36  1  0
 11 37  1  0
 12 38  1  0
 19 39  1  0
 19 40  1  0
 20 41  1  0
 20 42  1  0
 21 43  1  0
 22 44  1  0
 22 45  1  0
 23 46  1  0
 24 47  1  0
 24 48  1  0
 25 49  1  0
 25 50  1  0
M  END
>  <Energy>  (4) 
92.430934553117524

>  <compound_id>  (4) 
3081

>  <target_id>  (4) 
1

>  <reference_id>  (4) 
113

>  <inspiration_ids>  (4) 
[97, 113]

>  <energy_score>  (4) 
32.05430273591605

>  <distance_score>  (4) 
2.5712348893334367

>  <path>  (4) 
/opt/xchem-fragalysis-2/maxwin/BulkDock/SCRATCH/505734/C3081-P113/C3081-P113.minimised.mol

>  <scratch_subdir>  (4) 
/opt/xchem-fragalysis-2/maxwin/BulkDock/SCRATCH/505734/C3081-P113

>  <fragmenstein_runtime>  (4) 
9.993054151535034

>  <fragmenstein_outcome>  (4) 
too moved

>  <fragmenstein_mode>  (4) 
expansion

>  <fragmenstein_error>  (4) 


$$$$
C3083-P97
     RDKit          3D

 49 50  0  0  0  0  0  0  0  0999 V2000
   19.2472    2.1396   13.7831 C   0  0  0  0  0  0  0  0  0  0  0  0
   18.3011    1.0449   14.2250 C   0  0  0  0  0  0  0  0  0  0  0  0
   18.5686    0.2558   15.0405 O   0  0  0  0  0  0  0  0  0  0  0  0
   16.9949    1.2512   13.4182 N   0  0  0  0  0  0  0  0  0  0  0  0
   15.7815    0.4682   13.3819 C   0  0  0  0  0  0  0  0  0  0  0  0
   15.0093    0.5441   14.7022 C   0  0  0  0  0  0  0  0  0  0  0  0
   13.7222   -0.2281   14.6625 C   0  0  0  0  0  0  0  0  0  0  0  0
   12.6706    0.0143   13.7983 C   0  0  0  0  0  0  0  0  0  0  0  0
   11.7423   -0.9734   13.9635 N   0  0  0  0  0  0  0  0  0  0  0  0
   12.1786   -1.8825   14.8939 C   0  0  0  0  0  0  0  0  0  0  0  0
   11.6008   -3.0892   15.2942 C   0  0  0  0  0  0  0  0  0  0  0  0
   12.2642   -3.8346   16.2691 C   0  0  0  0  0  0  0  0  0  0  0  0
   13.4093   -3.3494   16.8676 C   0  0  0  0  0  0  0  0  0  0  0  0
   13.9576   -4.0476   17.8758 F   0  0  0  0  0  0  0  0  0  0  0  0
   13.9082   -2.0848   16.5385 C   0  0  0  0  0  0  0  0  0  0  0  0
   14.7498   -1.5011   17.4688 N   0  0  0  0  0  0  0  0  0  0  0  0
   14.8523   -0.0302   17.9450 C   0  0  0  0  0  0  0  0  0  0  0  0
   14.3103    0.8998   17.5789 O   0  0  0  0  0  0  0  0  0  0  0  0
   15.8261   -0.2156   19.1245 N   0  0  0  0  0  0  0  0  0  0  0  0
   16.2473    0.7195   20.1526 C   0  0  0  0  0  0  0  0  0  0  0  0
   17.6798    0.3754   20.5715 C   0  0  0  0  0  0  0  0  0  0  0  0
   16.1632    2.1717   19.6263 C   0  0  0  0  0  0  0  0  0  0  0  0
   16.6152    3.1167   20.5887 O   0  0  0  0  0  0  0  0  0  0  0  0
   15.2695    0.5240   21.3386 C   0  0  0  0  0  0  0  0  0  0  0  0
   15.1452   -0.8738   21.6527 O   0  0  0  0  0  0  0  0  0  0  0  0
   13.3545   -1.3771   15.4492 C   0  0  0  0  0  0  0  0  0  0  0  0
   18.8472    3.1151   14.0727 H   0  0  0  0  0  0  0  0  0  0  0  0
   19.3921    2.0977   12.7000 H   0  0  0  0  0  0  0  0  0  0  0  0
   20.2178    1.9981   14.2676 H   0  0  0  0  0  0  0  0  0  0  0  0
   17.0767    2.0853   12.8490 H   0  0  0  0  0  0  0  0  0  0  0  0
   16.0680   -0.5688   13.1744 H   0  0  0  0  0  0  0  0  0  0  0  0
   15.1828    0.8354   12.5421 H   0  0  0  0  0  0  0  0  0  0  0  0
   15.6676    0.1630   15.4866 H   0  0  0  0  0  0  0  0  0  0  0  0
   14.7934    1.5917   14.9462 H   0  0  0  0  0  0  0  0  0  0  0  0
   12.5220    0.7864   13.0555 H   0  0  0  0  0  0  0  0  0  0  0  0
   10.8724   -1.0680   13.4462 H   0  0  0  0  0  0  0  0  0  0  0  0
   10.6899   -3.4567   14.8372 H   0  0  0  0  0  0  0  0  0  0  0  0
   11.8649   -4.7888   16.5964 H   0  0  0  0  0  0  0  0  0  0  0  0
   15.3086   -2.0887   18.0630 H   0  0  0  0  0  0  0  0  0  0  0  0
   16.0601   -1.1884   19.2196 H   0  0  0  0  0  0  0  0  0  0  0  0
   18.3736    0.5004   19.7320 H   0  0  0  0  0  0  0  0  0  0  0  0
   18.0244    1.0135   21.3922 H   0  0  0  0  0  0  0  0  0  0  0  0
   17.7625   -0.6659   20.9040 H   0  0  0  0  0  0  0  0  0  0  0  0
   16.7754    2.2861   18.7239 H   0  0  0  0  0  0  0  0  0  0  0  0
   15.1333    2.4416   19.3716 H   0  0  0  0  0  0  0  0  0  0  0  0
   16.5974    3.9865   20.1521 H   0  0  0  0  0  0  0  0  0  0  0  0
   14.2704    0.8902   21.0763 H   0  0  0  0  0  0  0  0  0  0  0  0
   15.6063    1.0519   22.2364 H   0  0  0  0  0  0  0  0  0  0  0  0
   14.2430   -1.0150   22.0028 H   0  0  0  0  0  0  0  0  0  0  0  0
  1  2  1  0
  2  3  2  0
  2  4  1  0
  4  5  1  0
  5  6  1  0
  6  7  1  0
  7  8  2  0
  8  9  1  0
  9 10  1  0
 10 11  2  0
 11 12  1  0
 12 13  2  0
 13 14  1  0
 13 15  1  0
 15 16  1  0
 16 17  1  0
 17 18  2  0
 17 19  1  0
 19 20  1  0
 20 21  1  0
 20 22  1  0
 22 23  1  0
 20 24  1  0
 24 25  1  0
 15 26  2  0
 26  7  1  0
 26 10  1  0
  1 27  1  0
  1 28  1  0
  1 29  1  0
  4 30  1  0
  5 31  1  0
  5 32  1  0
  6 33  1  0
  6 34  1  0
  8 35  1  0
  9 36  1  0
 11 37  1  0
 12 38  1  0
 16 39  1  0
 19 40  1  0
 21 41  1  0
 21 42  1  0
 21 43  1  0
 22 44  1  0
 22 45  1  0
 23 46  1  0
 24 47  1  0
 24 48  1  0
 25 49  1  0
M  END
>  <Energy>  (5) 
44.724150887194995

>  <compound_id>  (5) 
3083

>  <target_id>  (5) 
1

>  <reference_id>  (5) 
97

>  <inspiration_ids>  (5) 
[97, 117]

>  <energy_score>  (5) 
-3.497367058579073

>  <distance_score>  (5) 
1.7872151337042963

>  <path>  (5) 
/opt/xchem-fragalysis-2/maxwin/BulkDock/SCRATCH/505734/C3083-P97/C3083-P97.minimised.mol

>  <scratch_subdir>  (5) 
/opt/xchem-fragalysis-2/maxwin/BulkDock/SCRATCH/505734/C3083-P97

>  <fragmenstein_runtime>  (5) 
2.9429304599761963

>  <fragmenstein_outcome>  (5) 
too moved

>  <fragmenstein_mode>  (5) 
expansion

>  <fragmenstein_error>  (5) 


$$$$
C3083-P117
     RDKit          3D

 49 50  0  0  0  0  0  0  0  0999 V2000
   19.1199    2.2801   14.0230 C   0  0  0  0  0  0  0  0  0  0  0  0
   18.2668    1.0408   14.1821 C   0  0  0  0  0  0  0  0  0  0  0  0
   18.6314    0.0753   14.7240 O   0  0  0  0  0  0  0  0  0  0  0  0
   16.9181    1.3535   13.4878 N   0  0  0  0  0  0  0  0  0  0  0  0
   15.7050    0.5736   13.4012 C   0  0  0  0  0  0  0  0  0  0  0  0
   14.9353    0.5721   14.7248 C   0  0  0  0  0  0  0  0  0  0  0  0
   13.6566   -0.2132   14.6555 C   0  0  0  0  0  0  0  0  0  0  0  0
   12.6210    0.0153   13.7674 C   0  0  0  0  0  0  0  0  0  0  0  0
   11.7015   -0.9834   13.9150 N   0  0  0  0  0  0  0  0  0  0  0  0
   12.1307   -1.8869   14.8531 C   0  0  0  0  0  0  0  0  0  0  0  0
   11.5656   -3.1052   15.2316 C   0  0  0  0  0  0  0  0  0  0  0  0
   12.2278   -3.8502   16.2059 C   0  0  0  0  0  0  0  0  0  0  0  0
   13.3473   -3.3483   16.8386 C   0  0  0  0  0  0  0  0  0  0  0  0
   13.8966   -4.0531   17.8418 F   0  0  0  0  0  0  0  0  0  0  0  0
   13.8280   -2.0720   16.5331 C   0  0  0  0  0  0  0  0  0  0  0  0
   14.6672   -1.4871   17.4640 N   0  0  0  0  0  0  0  0  0  0  0  0
   14.7574   -0.0188   17.9504 C   0  0  0  0  0  0  0  0  0  0  0  0
   14.2049    0.9084   17.5933 O   0  0  0  0  0  0  0  0  0  0  0  0
   15.7380   -0.2033   19.1249 N   0  0  0  0  0  0  0  0  0  0  0  0
   16.1547    0.7288   20.1583 C   0  0  0  0  0  0  0  0  0  0  0  0
   17.5834    0.3770   20.5868 C   0  0  0  0  0  0  0  0  0  0  0  0
   16.0816    2.1815   19.6311 C   0  0  0  0  0  0  0  0  0  0  0  0
   16.5676    3.1211   20.5821 O   0  0  0  0  0  0  0  0  0  0  0  0
   15.1672    0.5407   21.3356 C   0  0  0  0  0  0  0  0  0  0  0  0
   15.0432   -0.8542   21.6623 O   0  0  0  0  0  0  0  0  0  0  0  0
   13.2859   -1.3664   15.4358 C   0  0  0  0  0  0  0  0  0  0  0  0
   19.2521    2.5108   12.9624 H   0  0  0  0  0  0  0  0  0  0  0  0
   20.1040    2.1029   14.4667 H   0  0  0  0  0  0  0  0  0  0  0  0
   18.6510    3.1234   14.5373 H   0  0  0  0  0  0  0  0  0  0  0  0
   16.9068    2.3219   13.1904 H   0  0  0  0  0  0  0  0  0  0  0  0
   15.9914   -0.4497   13.1344 H   0  0  0  0  0  0  0  0  0  0  0  0
   15.1071    0.9911   12.5848 H   0  0  0  0  0  0  0  0  0  0  0  0
   15.6016    0.1607   15.4876 H   0  0  0  0  0  0  0  0  0  0  0  0
   14.7072    1.6038   15.0199 H   0  0  0  0  0  0  0  0  0  0  0  0
   12.4833    0.7821   13.0178 H   0  0  0  0  0  0  0  0  0  0  0  0
   10.8454   -1.0968   13.3793 H   0  0  0  0  0  0  0  0  0  0  0  0
   10.6720   -3.4861   14.7525 H   0  0  0  0  0  0  0  0  0  0  0  0
   11.8503   -4.8228   16.4951 H   0  0  0  0  0  0  0  0  0  0  0  0
   15.2340   -2.0736   18.0515 H   0  0  0  0  0  0  0  0  0  0  0  0
   15.9819   -1.1742   19.2120 H   0  0  0  0  0  0  0  0  0  0  0  0
   18.2839    0.5031   19.7531 H   0  0  0  0  0  0  0  0  0  0  0  0
   17.9242    1.0096   21.4133 H   0  0  0  0  0  0  0  0  0  0  0  0
   17.6592   -0.6662   20.9151 H   0  0  0  0  0  0  0  0  0  0  0  0
   16.6788    2.2869   18.7178 H   0  0  0  0  0  0  0  0  0  0  0  0
   15.0505    2.4638   19.3937 H   0  0  0  0  0  0  0  0  0  0  0  0
   16.4762    4.0001   20.1742 H   0  0  0  0  0  0  0  0  0  0  0  0
   14.1692    0.8999   21.0585 H   0  0  0  0  0  0  0  0  0  0  0  0
   15.4932    1.0785   22.2316 H   0  0  0  0  0  0  0  0  0  0  0  0
   14.1519   -0.9778   22.0454 H   0  0  0  0  0  0  0  0  0  0  0  0
  1  2  1  0
  2  3  2  0
  2  4  1  0
  4  5  1  0
  5  6  1  0
  6  7  1  0
  7  8  2  0
  8  9  1  0
  9 10  1  0
 10 11  2  0
 11 12  1  0
 12 13  2  0
 13 14  1  0
 13 15  1  0
 15 16  1  0
 16 17  1  0
 17 18  2  0
 17 19  1  0
 19 20  1  0
 20 21  1  0
 20 22  1  0
 22 23  1  0
 20 24  1  0
 24 25  1  0
 15 26  2  0
 26  7  1  0
 26 10  1  0
  1 27  1  0
  1 28  1  0
  1 29  1  0
  4 30  1  0
  5 31  1  0
  5 32  1  0
  6 33  1  0
  6 34  1  0
  8 35  1  0
  9 36  1  0
 11 37  1  0
 12 38  1  0
 16 39  1  0
 19 40  1  0
 21 41  1  0
 21 42  1  0
 21 43  1  0
 22 44  1  0
 22 45  1  0
 23 46  1  0
 24 47  1  0
 24 48  1  0
 25 49  1  0
M  END
>  <Energy>  (6) 
43.873543804110007

>  <compound_id>  (6) 
3083

>  <target_id>  (6) 
1

>  <reference_id>  (6) 
117

>  <inspiration_ids>  (6) 
[97, 117]

>  <energy_score>  (6) 
-4.347974141661439

>  <distance_score>  (6) 
1.7716635020454836

>  <path>  (6) 
/opt/xchem-fragalysis-2/maxwin/BulkDock/SCRATCH/505734/C3083-P117/C3083-P117.minimised.mol

>  <scratch_subdir>  (6) 
/opt/xchem-fragalysis-2/maxwin/BulkDock/SCRATCH/505734/C3083-P117

>  <fragmenstein_runtime>  (6) 
3.0193963050842285

>  <fragmenstein_outcome>  (6) 
too moved

>  <fragmenstein_mode>  (6) 
expansion

>  <fragmenstein_error>  (6) 


$$$$
C3085-P97
     RDKit          3D

 45 47  0  0  0  0  0  0  0  0999 V2000
   17.8072   -2.7318   10.6832 C   0  0  0  0  0  0  0  0  0  0  0  0
   16.5879   -1.8359   10.7533 C   0  0  0  0  0  0  0  0  0  0  0  0
   16.3325   -1.1032    9.8422 O   0  0  0  0  0  0  0  0  0  0  0  0
   15.9443   -2.0123   12.0223 N   0  0  0  0  0  0  0  0  0  0  0  0
   14.7349   -1.4325   12.5605 C   0  0  0  0  0  0  0  0  0  0  0  0
   15.0144   -0.1967   13.4732 C   0  0  0  0  0  0  0  0  0  0  0  0
   15.3956    0.9789   12.5449 C   0  0  0  0  0  0  0  0  0  0  0  0
   15.7099    2.3185   13.1973 C   0  0  0  0  0  0  0  0  0  0  0  0
   14.4557    3.0261   13.6885 C   0  0  0  0  0  0  0  0  0  0  0  0
   14.6594    4.4377   13.6313 O   0  0  0  0  0  0  0  0  0  0  0  0
   14.0582    2.6567   15.1122 C   0  0  0  0  0  0  0  0  0  0  0  0
   14.2095    1.1914   15.5231 C   0  0  0  0  0  0  0  0  0  0  0  0
   13.8480    0.0888   14.4961 C   0  0  0  0  0  0  0  0  0  0  0  0
   12.4581    0.3219   13.8117 C   0  0  0  0  0  0  0  0  0  0  0  0
   11.4831   -0.6276   14.3583 N   0  0  0  0  0  0  0  0  0  0  0  0
   12.2388   -1.5823   15.0449 C   0  0  0  0  0  0  0  0  0  0  0  0
   11.7505   -2.7636   15.5684 C   0  0  0  0  0  0  0  0  0  0  0  0
   12.5838   -3.5345   16.3808 C   0  0  0  0  0  0  0  0  0  0  0  0
   13.8863   -3.1111   16.6468 C   0  0  0  0  0  0  0  0  0  0  0  0
   14.6677   -3.8631   17.4333 F   0  0  0  0  0  0  0  0  0  0  0  0
   14.3917   -1.9369   16.0951 C   0  0  0  0  0  0  0  0  0  0  0  0
   13.5506   -1.1809   15.2850 C   0  0  0  0  0  0  0  0  0  0  0  0
   18.5086   -2.4698   11.4803 H   0  0  0  0  0  0  0  0  0  0  0  0
   17.5127   -3.7792   10.7734 H   0  0  0  0  0  0  0  0  0  0  0  0
   18.3068   -2.5957    9.7194 H   0  0  0  0  0  0  0  0  0  0  0  0
   16.3862   -2.7856   12.5135 H   0  0  0  0  0  0  0  0  0  0  0  0
   14.2405   -2.2459   13.0902 H   0  0  0  0  0  0  0  0  0  0  0  0
   14.1005   -1.1534   11.7140 H   0  0  0  0  0  0  0  0  0  0  0  0
   15.9114   -0.4304   14.0660 H   0  0  0  0  0  0  0  0  0  0  0  0
   14.6149    1.1245   11.7870 H   0  0  0  0  0  0  0  0  0  0  0  0
   16.2965    0.6927   11.9882 H   0  0  0  0  0  0  0  0  0  0  0  0
   16.1974    2.9502   12.4425 H   0  0  0  0  0  0  0  0  0  0  0  0
   16.4469    2.2029   14.0008 H   0  0  0  0  0  0  0  0  0  0  0  0
   13.6222    2.8251   13.0076 H   0  0  0  0  0  0  0  0  0  0  0  0
   15.4482    4.6521   14.1590 H   0  0  0  0  0  0  0  0  0  0  0  0
   13.0193    2.9755   15.2707 H   0  0  0  0  0  0  0  0  0  0  0  0
   14.6321    3.2653   15.8248 H   0  0  0  0  0  0  0  0  0  0  0  0
   15.2439    1.0333   15.8594 H   0  0  0  0  0  0  0  0  0  0  0  0
   13.6031    1.0658   16.4325 H   0  0  0  0  0  0  0  0  0  0  0  0
   12.0706    1.3304   13.9776 H   0  0  0  0  0  0  0  0  0  0  0  0
   12.5211    0.1985   12.7290 H   0  0  0  0  0  0  0  0  0  0  0  0
   10.7979   -1.0253   13.7001 H   0  0  0  0  0  0  0  0  0  0  0  0
   10.7403   -3.0857   15.3466 H   0  0  0  0  0  0  0  0  0  0  0  0
   12.2246   -4.4638   16.8125 H   0  0  0  0  0  0  0  0  0  0  0  0
   15.4149   -1.6417   16.2952 H   0  0  0  0  0  0  0  0  0  0  0  0
  1  2  1  0
  2  3  2  0
  2  4  1  0
  4  5  1  0
  5  6  1  0
  6  7  1  0
  7  8  1  0
  8  9  1  0
  9 10  1  0
  9 11  1  0
 11 12  1  0
 12 13  1  0
 13 14  1  0
 14 15  1  0
 15 16  1  0
 16 17  2  0
 17 18  1  0
 18 19  2  0
 19 20  1  0
 19 21  1  0
 21 22  2  0
 13  6  1  0
 22 16  1  0
 22 13  1  0
  1 23  1  0
  1 24  1  0
  1 25  1  0
  4 26  1  0
  5 27  1  0
  5 28  1  0
  6 29  1  0
  7 30  1  0
  7 31  1  0
  8 32  1  0
  8 33  1  0
  9 34  1  0
 10 35  1  0
 11 36  1  0
 11 37  1  0
 12 38  1  0
 12 39  1  0
 14 40  1  0
 14 41  1  0
 15 42  1  0
 17 43  1  0
 18 44  1  0
 21 45  1  0
M  END
>  <Energy>  (7) 
39.0592611111447

>  <compound_id>  (7) 
3085

>  <target_id>  (7) 
1

>  <reference_id>  (7) 
97

>  <inspiration_ids>  (7) 
[97, 120]

>  <energy_score>  (7) 
-56.681664957260125

>  <distance_score>  (7) 
1.6346198943611074

>  <path>  (7) 
/opt/xchem-fragalysis-2/maxwin/BulkDock/SCRATCH/505734/C3085-P97/C3085-P97.minimised.mol

>  <scratch_subdir>  (7) 
/opt/xchem-fragalysis-2/maxwin/BulkDock/SCRATCH/505734/C3085-P97

>  <fragmenstein_runtime>  (7) 
3.128438949584961

>  <fragmenstein_outcome>  (7) 
too moved

>  <fragmenstein_mode>  (7) 
expansion

>  <fragmenstein_error>  (7) 


$$$$
C3085-P120
     RDKit          3D

 45 47  0  0  0  0  0  0  0  0999 V2000
   17.8283   -2.8696   10.7401 C   0  0  0  0  0  0  0  0  0  0  0  0
   16.6480   -1.9258   10.8091 C   0  0  0  0  0  0  0  0  0  0  0  0
   16.3773   -1.1791    9.9537 O   0  0  0  0  0  0  0  0  0  0  0  0
   15.9778   -2.1601   12.1881 N   0  0  0  0  0  0  0  0  0  0  0  0
   14.7806   -1.5897   12.7567 C   0  0  0  0  0  0  0  0  0  0  0  0
   15.0328   -0.2927   13.5907 C   0  0  0  0  0  0  0  0  0  0  0  0
   15.5185    0.7823   12.5911 C   0  0  0  0  0  0  0  0  0  0  0  0
   15.7218    2.1988   13.0970 C   0  0  0  0  0  0  0  0  0  0  0  0
   14.3988    2.8871   13.3841 C   0  0  0  0  0  0  0  0  0  0  0  0
   14.5197    4.2761   13.0888 O   0  0  0  0  0  0  0  0  0  0  0  0
   13.9496    2.7107   14.8317 C   0  0  0  0  0  0  0  0  0  0  0  0
   14.0845    1.2986   15.4273 C   0  0  0  0  0  0  0  0  0  0  0  0
   13.7954    0.0849   14.5031 C   0  0  0  0  0  0  0  0  0  0  0  0
   12.4633    0.2785   13.7001 C   0  0  0  0  0  0  0  0  0  0  0  0
   11.4726   -0.6869   14.1655 N   0  0  0  0  0  0  0  0  0  0  0  0
   12.1553   -1.5848   14.9791 C   0  0  0  0  0  0  0  0  0  0  0  0
   11.6274   -2.7563   15.4878 C   0  0  0  0  0  0  0  0  0  0  0  0
   12.3870   -3.4897   16.3960 C   0  0  0  0  0  0  0  0  0  0  0  0
   13.6376   -3.0214   16.8001 C   0  0  0  0  0  0  0  0  0  0  0  0
   14.3328   -3.7373   17.6949 F   0  0  0  0  0  0  0  0  0  0  0  0
   14.1772   -1.8438   16.2801 C   0  0  0  0  0  0  0  0  0  0  0  0
   13.4229   -1.1341   15.3510 C   0  0  0  0  0  0  0  0  0  0  0  0
   18.4246   -2.8092   11.6546 H   0  0  0  0  0  0  0  0  0  0  0  0
   17.4746   -3.8909   10.5867 H   0  0  0  0  0  0  0  0  0  0  0  0
   18.4664   -2.5874    9.8974 H   0  0  0  0  0  0  0  0  0  0  0  0
   16.4222   -2.9484   12.6526 H   0  0  0  0  0  0  0  0  0  0  0  0
   14.3488   -2.3857   13.3587 H   0  0  0  0  0  0  0  0  0  0  0  0
   14.0998   -1.3887   11.9252 H   0  0  0  0  0  0  0  0  0  0  0  0
   15.8790   -0.4987   14.2630 H   0  0  0  0  0  0  0  0  0  0  0  0
   14.8462    0.8137   11.7233 H   0  0  0  0  0  0  0  0  0  0  0  0
   16.4919    0.4619   12.1996 H   0  0  0  0  0  0  0  0  0  0  0  0
   16.2550    2.7588   12.3171 H   0  0  0  0  0  0  0  0  0  0  0  0
   16.3840    2.2127   13.9707 H   0  0  0  0  0  0  0  0  0  0  0  0
   13.6252    2.5218   12.7025 H   0  0  0  0  0  0  0  0  0  0  0  0
   15.2281    4.6431   13.6459 H   0  0  0  0  0  0  0  0  0  0  0  0
   12.9075    3.0469   14.9134 H   0  0  0  0  0  0  0  0  0  0  0  0
   14.5033    3.4058   15.4777 H   0  0  0  0  0  0  0  0  0  0  0  0
   15.0955    1.1899   15.8438 H   0  0  0  0  0  0  0  0  0  0  0  0
   13.4190    1.2634   16.3019 H   0  0  0  0  0  0  0  0  0  0  0  0
   12.0263    1.2702   13.8427 H   0  0  0  0  0  0  0  0  0  0  0  0
   12.6261    0.1767   12.6267 H   0  0  0  0  0  0  0  0  0  0  0  0
   10.8102   -1.0894   13.4935 H   0  0  0  0  0  0  0  0  0  0  0  0
   10.6492   -3.1021   15.1734 H   0  0  0  0  0  0  0  0  0  0  0  0
   12.0113   -4.4237   16.7993 H   0  0  0  0  0  0  0  0  0  0  0  0
   15.1663   -1.5203   16.5823 H   0  0  0  0  0  0  0  0  0  0  0  0
  1  2  1  0
  2  3  2  0
  2  4  1  0
  4  5  1  0
  5  6  1  0
  6  7  1  0
  7  8  1  0
  8  9  1  0
  9 10  1  0
  9 11  1  0
 11 12  1  0
 12 13  1  0
 13 14  1  0
 14 15  1  0
 15 16  1  0
 16 17  2  0
 17 18  1  0
 18 19  2  0
 19 20  1  0
 19 21  1  0
 21 22  2  0
 13  6  1  0
 22 16  1  0
 22 13  1  0
  1 23  1  0
  1 24  1  0
  1 25  1  0
  4 26  1  0
  5 27  1  0
  5 28  1  0
  6 29  1  0
  7 30  1  0
  7 31  1  0
  8 32  1  0
  8 33  1  0
  9 34  1  0
 10 35  1  0
 11 36  1  0
 11 37  1  0
 12 38  1  0
 12 39  1  0
 14 40  1  0
 14 41  1  0
 15 42  1  0
 17 43  1  0
 18 44  1  0
 21 45  1  0
M  END
>  <Energy>  (8) 
50.816679395072626

>  <compound_id>  (8) 
3085

>  <target_id>  (8) 
1

>  <reference_id>  (8) 
120

>  <inspiration_ids>  (8) 
[97, 120]

>  <energy_score>  (8) 
-35.71011246503144

>  <distance_score>  (8) 
1.530702036350188

>  <path>  (8) 
/opt/xchem-fragalysis-2/maxwin/BulkDock/SCRATCH/505734/C3085-P120/C3085-P120.minimised.mol

>  <scratch_subdir>  (8) 
/opt/xchem-fragalysis-2/maxwin/BulkDock/SCRATCH/505734/C3085-P120

>  <fragmenstein_runtime>  (8) 
2.5278632640838623

>  <fragmenstein_outcome>  (8) 
too moved

>  <fragmenstein_mode>  (8) 
expansion

>  <fragmenstein_error>  (8) 


$$$$
C3087-P97
     RDKit          3D

 43 45  0  0  0  0  0  0  0  0999 V2000
   16.2706    1.5393   18.1186 C   0  0  0  0  0  0  0  0  0  0  0  0
   16.9564    1.5237   16.7692 C   0  0  0  0  0  0  0  0  0  0  0  0
   18.0966    1.7195   16.6250 O   0  0  0  0  0  0  0  0  0  0  0  0
   15.8601    1.1803   15.7346 N   0  0  0  0  0  0  0  0  0  0  0  0
   15.9224    1.0999   14.2926 C   0  0  0  0  0  0  0  0  0  0  0  0
   15.7580   -0.3207   13.7531 C   0  0  0  0  0  0  0  0  0  0  0  0
   14.4949   -0.9878   14.2136 C   0  0  0  0  0  0  0  0  0  0  0  0
   13.2789   -0.8398   13.5774 C   0  0  0  0  0  0  0  0  0  0  0  0
   12.3593   -1.6448   14.1834 N   0  0  0  0  0  0  0  0  0  0  0  0
   12.9455   -2.2936   15.2494 C   0  0  0  0  0  0  0  0  0  0  0  0
   12.3849   -3.2343   16.1160 C   0  0  0  0  0  0  0  0  0  0  0  0
   13.1976   -3.7554   17.1176 C   0  0  0  0  0  0  0  0  0  0  0  0
   14.5243   -3.3654   17.2391 C   0  0  0  0  0  0  0  0  0  0  0  0
   15.2091   -3.9027   18.2549 F   0  0  0  0  0  0  0  0  0  0  0  0
   15.1104   -2.4383   16.3607 C   0  0  0  0  0  0  0  0  0  0  0  0
   16.4549   -2.0437   16.4496 N   0  0  0  0  0  0  0  0  0  0  0  0
   17.5991   -2.5410   17.3942 C   0  0  0  0  0  0  0  0  0  0  0  0
   17.6086   -3.4066   18.1843 O   0  0  0  0  0  0  0  0  0  0  0  0
   18.8217   -1.6395   17.1748 C   0  0  0  0  0  0  0  0  0  0  0  0
   19.2055   -1.5131   15.7394 C   0  0  0  0  0  0  0  0  0  0  0  0
   19.4742   -2.4578   14.7723 C   0  0  0  0  0  0  0  0  0  0  0  0
   19.7577   -1.7157   13.6136 C   0  0  0  0  0  0  0  0  0  0  0  0
   19.6738   -0.3998   13.8198 N   0  0  0  0  0  0  0  0  0  0  0  0
   19.3850   -0.2965   15.1302 N   0  0  0  0  0  0  0  0  0  0  0  0
   14.2876   -1.8870   15.3274 C   0  0  0  0  0  0  0  0  0  0  0  0
   17.0107    1.7385   18.8991 H   0  0  0  0  0  0  0  0  0  0  0  0
   15.8090    0.5678   18.3160 H   0  0  0  0  0  0  0  0  0  0  0  0
   15.5141    2.3283   18.1431 H   0  0  0  0  0  0  0  0  0  0  0  0
   14.9548    1.1565   16.1947 H   0  0  0  0  0  0  0  0  0  0  0  0
   15.1302    1.7512   13.9076 H   0  0  0  0  0  0  0  0  0  0  0  0
   16.8852    1.5098   13.9711 H   0  0  0  0  0  0  0  0  0  0  0  0
   15.7516   -0.2715   12.6560 H   0  0  0  0  0  0  0  0  0  0  0  0
   16.6245   -0.9367   14.0009 H   0  0  0  0  0  0  0  0  0  0  0  0
   13.0047   -0.2402   12.7217 H   0  0  0  0  0  0  0  0  0  0  0  0
   11.3943   -1.7618   13.8841 H   0  0  0  0  0  0  0  0  0  0  0  0
   11.3610   -3.5724   15.9993 H   0  0  0  0  0  0  0  0  0  0  0  0
   12.7973   -4.4748   17.8250 H   0  0  0  0  0  0  0  0  0  0  0  0
   16.7615   -1.2205   15.9520 H   0  0  0  0  0  0  0  0  0  0  0  0
   18.6109   -0.6696   17.6335 H   0  0  0  0  0  0  0  0  0  0  0  0
   19.6646   -2.0773   17.7234 H   0  0  0  0  0  0  0  0  0  0  0  0
   19.4533   -3.5336   14.8839 H   0  0  0  0  0  0  0  0  0  0  0  0
   20.0107   -2.0792   12.6259 H   0  0  0  0  0  0  0  0  0  0  0  0
   19.2792    0.6339   15.5389 H   0  0  0  0  0  0  0  0  0  0  0  0
  1  2  1  0
  2  3  2  0
  2  4  1  0
  4  5  1  0
  5  6  1  0
  6  7  1  0
  7  8  2  0
  8  9  1  0
  9 10  1  0
 10 11  2  0
 11 12  1  0
 12 13  2  0
 13 14  1  0
 13 15  1  0
 15 16  1  0
 16 17  1  0
 17 18  2  0
 17 19  1  0
 19 20  1  0
 20 21  2  0
 21 22  1  0
 22 23  2  0
 23 24  1  0
 15 25  2  0
 25  7  1  0
 25 10  1  0
 24 20  1  0
  1 26  1  0
  1 27  1  0
  1 28  1  0
  4 29  1  0
  5 30  1  0
  5 31  1  0
  6 32  1  0
  6 33  1  0
  8 34  1  0
  9 35  1  0
 11 36  1  0
 12 37  1  0
 16 38  1  0
 19 39  1  0
 19 40  1  0
 21 41  1  0
 22 42  1  0
 24 43  1  0
M  END
>  <Energy>  (9) 
57.901338896790925

>  <compound_id>  (9) 
3087

>  <target_id>  (9) 
1

>  <reference_id>  (9) 
97

>  <inspiration_ids>  (9) 
[97, 146]

>  <energy_score>  (9) 
-26.03952093342221

>  <distance_score>  (9) 
2.7563540604753705

>  <path>  (9) 
/opt/xchem-fragalysis-2/maxwin/BulkDock/SCRATCH/505734/C3087-P97/C3087-P97.minimised.mol

>  <scratch_subdir>  (9) 
/opt/xchem-fragalysis-2/maxwin/BulkDock/SCRATCH/505734/C3087-P97

>  <fragmenstein_runtime>  (9) 
3.5003814697265625

>  <fragmenstein_outcome>  (9) 
too moved

>  <fragmenstein_mode>  (9) 
expansion

>  <fragmenstein_error>  (9) 


$$$$
C3087-P146
     RDKit          3D

 43 45  0  0  0  0  0  0  0  0999 V2000
   16.7084    2.3364   17.3477 C   0  0  0  0  0  0  0  0  0  0  0  0
   17.1071    1.9423   15.9470 C   0  0  0  0  0  0  0  0  0  0  0  0
   18.2159    1.9373   15.5861 O   0  0  0  0  0  0  0  0  0  0  0  0
   15.8096    1.5550   15.2019 N   0  0  0  0  0  0  0  0  0  0  0  0
   15.5975    1.1714   13.8276 C   0  0  0  0  0  0  0  0  0  0  0  0
   15.6261   -0.3390   13.5982 C   0  0  0  0  0  0  0  0  0  0  0  0
   14.4409   -1.0556   14.1773 C   0  0  0  0  0  0  0  0  0  0  0  0
   13.2035   -1.0535   13.5633 C   0  0  0  0  0  0  0  0  0  0  0  0
   12.3578   -1.8549   14.2660 N   0  0  0  0  0  0  0  0  0  0  0  0
   13.0148   -2.3862   15.3534 C   0  0  0  0  0  0  0  0  0  0  0  0
   12.5369   -3.2935   16.3034 C   0  0  0  0  0  0  0  0  0  0  0  0
   13.4004   -3.6764   17.3231 C   0  0  0  0  0  0  0  0  0  0  0  0
   14.6908   -3.1646   17.3913 C   0  0  0  0  0  0  0  0  0  0  0  0
   15.4260   -3.5553   18.4380 F   0  0  0  0  0  0  0  0  0  0  0  0
   15.1916   -2.2594   16.4353 C   0  0  0  0  0  0  0  0  0  0  0  0
   16.4890   -1.7266   16.4917 N   0  0  0  0  0  0  0  0  0  0  0  0
   17.6864   -2.0666   17.4407 C   0  0  0  0  0  0  0  0  0  0  0  0
   17.7423   -2.7857   18.3642 O   0  0  0  0  0  0  0  0  0  0  0  0
   18.8779   -1.2008   17.0149 C   0  0  0  0  0  0  0  0  0  0  0  0
   19.2486   -1.4081   15.5864 C   0  0  0  0  0  0  0  0  0  0  0  0
   19.5339   -2.5473   14.8641 C   0  0  0  0  0  0  0  0  0  0  0  0
   19.7995   -2.0908   13.5619 C   0  0  0  0  0  0  0  0  0  0  0  0
   19.6859   -0.7659   13.4564 N   0  0  0  0  0  0  0  0  0  0  0  0
   19.4027   -0.3651   14.7080 N   0  0  0  0  0  0  0  0  0  0  0  0
   14.3222   -1.8702   15.3678 C   0  0  0  0  0  0  0  0  0  0  0  0
   15.9737    3.1447   17.3175 H   0  0  0  0  0  0  0  0  0  0  0  0
   16.3096    1.4649   17.8722 H   0  0  0  0  0  0  0  0  0  0  0  0
   17.5895    2.6948   17.8882 H   0  0  0  0  0  0  0  0  0  0  0  0
   15.0000    1.7595   15.7956 H   0  0  0  0  0  0  0  0  0  0  0  0
   14.6456    1.6087   13.5088 H   0  0  0  0  0  0  0  0  0  0  0  0
   16.3991    1.6336   13.2415 H   0  0  0  0  0  0  0  0  0  0  0  0
   15.6198   -0.5119   12.5127 H   0  0  0  0  0  0  0  0  0  0  0  0
   16.5641   -0.7743   13.9439 H   0  0  0  0  0  0  0  0  0  0  0  0
   12.8705   -0.5504   12.6653 H   0  0  0  0  0  0  0  0  0  0  0  0
   11.3930   -2.0435   14.0200 H   0  0  0  0  0  0  0  0  0  0  0  0
   11.5388   -3.7127   16.2376 H   0  0  0  0  0  0  0  0  0  0  0  0
   13.0714   -4.3777   18.0864 H   0  0  0  0  0  0  0  0  0  0  0  0
   16.7653   -1.0027   15.8454 H   0  0  0  0  0  0  0  0  0  0  0  0
   18.6352   -0.1570   17.2330 H   0  0  0  0  0  0  0  0  0  0  0  0
   19.7345   -1.4700   17.6445 H   0  0  0  0  0  0  0  0  0  0  0  0
   19.5436   -3.5670   15.2254 H   0  0  0  0  0  0  0  0  0  0  0  0
   20.0623   -2.6685   12.6846 H   0  0  0  0  0  0  0  0  0  0  0  0
   19.2825    0.6344   14.8852 H   0  0  0  0  0  0  0  0  0  0  0  0
  1  2  1  0
  2  3  2  0
  2  4  1  0
  4  5  1  0
  5  6  1  0
  6  7  1  0
  7  8  2  0
  8  9  1  0
  9 10  1  0
 10 11  2  0
 11 12  1  0
 12 13  2  0
 13 14  1  0
 13 15  1  0
 15 16  1  0
 16 17  1  0
 17 18  2  0
 17 19  1  0
 19 20  1  0
 20 21  2  0
 21 22  1  0
 22 23  2  0
 23 24  1  0
 15 25  2  0
 25  7  1  0
 25 10  1  0
 24 20  1  0
  1 26  1  0
  1 27  1  0
  1 28  1  0
  4 29  1  0
  5 30  1  0
  5 31  1  0
  6 32  1  0
  6 33  1  0
  8 34  1  0
  9 35  1  0
 11 36  1  0
 12 37  1  0
 16 38  1  0
 19 39  1  0
 19 40  1  0
 21 41  1  0
 22 42  1  0
 24 43  1  0
M  END
>  <Energy>  (10) 
58.673862060141602

>  <compound_id>  (10) 
3087

>  <target_id>  (10) 
1

>  <reference_id>  (10) 
146

>  <inspiration_ids>  (10) 
[97, 146]

>  <energy_score>  (10) 
-25.26699777007167

>  <distance_score>  (10) 
2.830898652391006

>  <path>  (10) 
/opt/xchem-fragalysis-2/maxwin/BulkDock/SCRATCH/505734/C3087-P146/C3087-P146.minimised.mol

>  <scratch_subdir>  (10) 
/opt/xchem-fragalysis-2/maxwin/BulkDock/SCRATCH/505734/C3087-P146

>  <fragmenstein_runtime>  (10) 
6.111929416656494

>  <fragmenstein_outcome>  (10) 
too moved

>  <fragmenstein_mode>  (10) 
expansion

>  <fragmenstein_error>  (10) 


$$$$
C3088-P97
     RDKit          3D

 56 60  0  0  0  0  0  0  0  0999 V2000
   18.9326   -3.6801   13.8812 C   0  0  0  0  0  0  0  0  0  0  0  0
   18.2017   -2.5025   13.3776 C   0  0  0  0  0  0  0  0  0  0  0  0
   19.1351   -1.2053   13.1529 O   0  0  0  0  0  0  0  0  0  0  0  0
   17.2353   -2.1540   13.0492 N   0  0  0  0  0  0  0  0  0  0  0  0
   16.4749   -0.9056   12.5652 C   0  0  0  0  0  0  0  0  0  0  0  0
   15.8083   -0.1457   13.7257 C   0  0  0  0  0  0  0  0  0  0  0  0
   14.5751   -0.8351   14.2171 C   0  0  0  0  0  0  0  0  0  0  0  0
   13.2844   -0.6163   13.7670 C   0  0  0  0  0  0  0  0  0  0  0  0
   12.4286   -1.4596   14.4298 N   0  0  0  0  0  0  0  0  0  0  0  0
   13.1550   -2.1646   15.3482 C   0  0  0  0  0  0  0  0  0  0  0  0
   14.4863   -1.8387   15.2208 C   0  0  0  0  0  0  0  0  0  0  0  0
   15.5551   -2.5108   16.0286 C   0  0  0  0  0  0  0  0  0  0  0  0
   14.9930   -3.1879   17.3220 C   0  0  0  0  0  0  0  0  0  0  0  0
   13.6642   -3.9366   17.0226 C   0  0  0  0  0  0  0  0  0  0  0  0
   12.5823   -3.0836   16.3538 C   0  0  0  0  0  0  0  0  0  0  0  0
   14.8253   -2.2165   18.4212 N   0  0  0  0  0  0  0  0  0  0  0  0
   15.9563   -2.4528   19.3107 C   0  0  0  0  0  0  0  0  0  0  0  0
   15.6387   -1.8861   21.0008 S   0  0  0  0  0  0  0  0  0  0  0  0
   16.0733   -0.2046   20.9595 C   0  0  0  0  0  0  0  0  0  0  0  0
   17.2547    0.2288   20.4684 C   0  0  0  0  0  0  0  0  0  0  0  0
   17.5577    1.6536   20.4526 C   0  0  0  0  0  0  0  0  0  0  0  0
   16.6843    2.5635   20.9212 C   0  0  0  0  0  0  0  0  0  0  0  0
   15.4483    2.1265   21.4639 C   0  0  0  0  0  0  0  0  0  0  0  0
   14.4243    2.7787   21.9705 N   0  0  0  0  0  0  0  0  0  0  0  0
   13.5108    1.8494   22.4086 N   0  0  0  0  0  0  0  0  0  0  0  0
   14.0082    0.6575   22.1643 C   0  0  0  0  0  0  0  0  0  0  0  0
   15.2009    0.7587   21.4978 N   0  0  0  0  0  0  0  0  0  0  0  0
   16.1258   -3.8998   19.2207 N   0  0  0  0  0  0  0  0  0  0  0  0
   17.4410   -4.3495   19.6679 C   0  0  0  0  0  0  0  0  0  0  0  0
   15.9915   -4.1653   17.8045 N   0  0  0  0  0  0  0  0  0  0  0  0
   18.2279   -4.4875   14.0974 H   0  0  0  0  0  0  0  0  0  0  0  0
   19.6436   -4.0214   13.1253 H   0  0  0  0  0  0  0  0  0  0  0  0
   19.4588   -3.4180   14.8022 H   0  0  0  0  0  0  0  0  0  0  0  0
   16.2761   -2.2599   12.8088 H   0  0  0  0  0  0  0  0  0  0  0  0
   15.7722   -1.1178   11.7332 H   0  0  0  0  0  0  0  0  0  0  0  0
   17.2352   -0.2414   12.1345 H   0  0  0  0  0  0  0  0  0  0  0  0
   15.5372    0.8590   13.3778 H   0  0  0  0  0  0  0  0  0  0  0  0
   16.5187   -0.0121   14.5500 H   0  0  0  0  0  0  0  0  0  0  0  0
   12.8987    0.0616   13.0174 H   0  0  0  0  0  0  0  0  0  0  0  0
   11.4274   -1.5267   14.2641 H   0  0  0  0  0  0  0  0  0  0  0  0
   16.3541   -1.8012   16.2767 H   0  0  0  0  0  0  0  0  0  0  0  0
   16.0066   -3.2824   15.3907 H   0  0  0  0  0  0  0  0  0  0  0  0
   13.8845   -4.7786   16.3565 H   0  0  0  0  0  0  0  0  0  0  0  0
   13.2534   -4.3809   17.9390 H   0  0  0  0  0  0  0  0  0  0  0  0
   12.1246   -2.4547   17.1062 H   0  0  0  0  0  0  0  0  0  0  0  0
   11.8026   -3.7195   15.9234 H   0  0  0  0  0  0  0  0  0  0  0  0
   14.8835   -1.2718   18.0576 H   0  0  0  0  0  0  0  0  0  0  0  0
   16.8406   -1.9490   18.9004 H   0  0  0  0  0  0  0  0  0  0  0  0
   18.0199   -0.4377   20.0836 H   0  0  0  0  0  0  0  0  0  0  0  0
   18.5143    1.9654   20.0419 H   0  0  0  0  0  0  0  0  0  0  0  0
   16.9017    3.6258   20.9072 H   0  0  0  0  0  0  0  0  0  0  0  0
   13.5682   -0.2840   22.4498 H   0  0  0  0  0  0  0  0  0  0  0  0
   17.5798   -4.1623   20.7378 H   0  0  0  0  0  0  0  0  0  0  0  0
   17.5399   -5.4324   19.5279 H   0  0  0  0  0  0  0  0  0  0  0  0
   18.2604   -3.8625   19.1253 H   0  0  0  0  0  0  0  0  0  0  0  0
   15.6536   -5.1167   17.6549 H   0  0  0  0  0  0  0  0  0  0  0  0
  1  2  1  0
  2  3  2  0
  2  4  1  0
  4  5  1  0
  5  6  1  0
  6  7  1  0
  7  8  2  0
  8  9  1  0
  9 10  1  0
 10 11  2  0
 11 12  1  0
 12 13  1  0
 13 14  1  0
 14 15  1  0
 13 16  1  0
 16 17  1  0
 17 18  1  0
 18 19  1  0
 19 20  2  0
 20 21  1  0
 21 22  2  0
 22 23  1  0
 23 24  2  0
 24 25  1  0
 25 26  2  0
 26 27  1  0
 17 28  1  0
 28 29  1  0
 28 30  1  0
 11  7  1  0
 30 13  1  0
 15 10  1  0
 27 19  1  0
 27 23  1  0
  1 31  1  0
  1 32  1  0
  1 33  1  0
  4 34  1  0
  5 35  1  0
  5 36  1  0
  6 37  1  0
  6 38  1  0
  8 39  1  0
  9 40  1  0
 12 41  1  0
 12 42  1  0
 14 43  1  0
 14 44  1  0
 15 45  1  0
 15 46  1  0
 16 47  1  0
 17 48  1  0
 20 49  1  0
 21 50  1  0
 22 51  1  0
 26 52  1  0
 29 53  1  0
 29 54  1  0
 29 55  1  0
 30 56  1  0
M  END
>  <Energy>  (11) 
222.27867579480682

>  <compound_id>  (11) 
3088

>  <target_id>  (11) 
1

>  <reference_id>  (11) 
97

>  <inspiration_ids>  (11) 
[97, 184]

>  <energy_score>  (11) 
153.05422720312734

>  <distance_score>  (11) 
1.7006648927102865

>  <path>  (11) 
/opt/xchem-fragalysis-2/maxwin/BulkDock/SCRATCH/505734/C3088-P97/C3088-P97.minimised.mol

>  <scratch_subdir>  (11) 
/opt/xchem-fragalysis-2/maxwin/BulkDock/SCRATCH/505734/C3088-P97

>  <fragmenstein_runtime>  (11) 
6.982643127441406

>  <fragmenstein_outcome>  (11) 
too moved

>  <fragmenstein_mode>  (11) 
expansion

>  <fragmenstein_error>  (11) 


$$$$
C3088-P184
     RDKit          3D

 56 60  0  0  0  0  0  0  0  0999 V2000
   19.1067   -1.9948   14.3642 C   0  0  0  0  0  0  0  0  0  0  0  0
   17.6584   -2.0942   13.9394 C   0  0  0  0  0  0  0  0  0  0  0  0
   17.0625   -3.0973   13.9201 O   0  0  0  0  0  0  0  0  0  0  0  0
   17.2037   -0.6490   13.6098 N   0  0  0  0  0  0  0  0  0  0  0  0
   15.9441   -0.1544   13.0958 C   0  0  0  0  0  0  0  0  0  0  0  0
   14.9834    0.3226   14.1921 C   0  0  0  0  0  0  0  0  0  0  0  0
   13.9103   -0.6736   14.5075 C   0  0  0  0  0  0  0  0  0  0  0  0
   12.6331   -0.7115   13.9677 C   0  0  0  0  0  0  0  0  0  0  0  0
   11.9451   -1.7761   14.4989 N   0  0  0  0  0  0  0  0  0  0  0  0
   12.7557   -2.3737   15.4154 C   0  0  0  0  0  0  0  0  0  0  0  0
   13.9780   -1.7414   15.4341 C   0  0  0  0  0  0  0  0  0  0  0  0
   15.0686   -2.1624   16.3716 C   0  0  0  0  0  0  0  0  0  0  0  0
   14.5369   -2.7292   17.7270 C   0  0  0  0  0  0  0  0  0  0  0  0
   13.0039   -2.8985   17.7135 C   0  0  0  0  0  0  0  0  0  0  0  0
   12.3862   -3.3968   16.4087 C   0  0  0  0  0  0  0  0  0  0  0  0
   14.8833   -1.8562   18.8763 N   0  0  0  0  0  0  0  0  0  0  0  0
   15.8287   -2.6142   19.6830 C   0  0  0  0  0  0  0  0  0  0  0  0
   15.8046   -2.1321   21.4266 S   0  0  0  0  0  0  0  0  0  0  0  0
   16.2139   -0.4460   21.3893 C   0  0  0  0  0  0  0  0  0  0  0  0
   17.4240   -0.0089   20.9804 C   0  0  0  0  0  0  0  0  0  0  0  0
   17.7230    1.4183   21.0054 C   0  0  0  0  0  0  0  0  0  0  0  0
   16.8137    2.3220   21.4168 C   0  0  0  0  0  0  0  0  0  0  0  0
   15.5368    1.8783   21.8487 C   0  0  0  0  0  0  0  0  0  0  0  0
   14.4727    2.5224   22.2772 N   0  0  0  0  0  0  0  0  0  0  0  0
   13.5262    1.5853   22.6191 N   0  0  0  0  0  0  0  0  0  0  0  0
   14.0437    0.3977   22.3962 C   0  0  0  0  0  0  0  0  0  0  0  0
   15.2929    0.5103   21.8488 N   0  0  0  0  0  0  0  0  0  0  0  0
   15.3980   -3.9906   19.4571 N   0  0  0  0  0  0  0  0  0  0  0  0
   16.4014   -4.9847   19.8151 C   0  0  0  0  0  0  0  0  0  0  0  0
   15.1693   -4.0272   18.0246 N   0  0  0  0  0  0  0  0  0  0  0  0
   19.1813   -1.4257   15.2948 H   0  0  0  0  0  0  0  0  0  0  0  0
   19.5052   -2.9997   14.5318 H   0  0  0  0  0  0  0  0  0  0  0  0
   19.6978   -1.5148   13.5794 H   0  0  0  0  0  0  0  0  0  0  0  0
   17.9580   -0.0024   13.8104 H   0  0  0  0  0  0  0  0  0  0  0  0
   16.2031    0.6899   12.4480 H   0  0  0  0  0  0  0  0  0  0  0  0
   15.5004   -0.9407   12.4759 H   0  0  0  0  0  0  0  0  0  0  0  0
   15.5269    0.6006   15.1027 H   0  0  0  0  0  0  0  0  0  0  0  0
   14.4896    1.2378   13.8388 H   0  0  0  0  0  0  0  0  0  0  0  0
   12.1546   -0.0796   13.2307 H   0  0  0  0  0  0  0  0  0  0  0  0
   10.9863   -2.0263   14.2751 H   0  0  0  0  0  0  0  0  0  0  0  0
   15.7754   -1.3402   16.5330 H   0  0  0  0  0  0  0  0  0  0  0  0
   15.6441   -2.9455   15.8678 H   0  0  0  0  0  0  0  0  0  0  0  0
   12.6948   -3.5319   18.5468 H   0  0  0  0  0  0  0  0  0  0  0  0
   12.5989   -1.8925   17.8280 H   0  0  0  0  0  0  0  0  0  0  0  0
   11.3047   -3.4884   16.4797 H   0  0  0  0  0  0  0  0  0  0  0  0
   12.7903   -4.3711   16.1777 H   0  0  0  0  0  0  0  0  0  0  0  0
   15.3323   -1.0082   18.5553 H   0  0  0  0  0  0  0  0  0  0  0  0
   16.8435   -2.4574   19.2907 H   0  0  0  0  0  0  0  0  0  0  0  0
   18.2089   -0.6814   20.6484 H   0  0  0  0  0  0  0  0  0  0  0  0
   18.7106    1.7355   20.6822 H   0  0  0  0  0  0  0  0  0  0  0  0
   17.0308    3.3842   21.4383 H   0  0  0  0  0  0  0  0  0  0  0  0
   13.5802   -0.5506   22.6131 H   0  0  0  0  0  0  0  0  0  0  0  0
   16.5941   -4.9818   20.8930 H   0  0  0  0  0  0  0  0  0  0  0  0
   16.0443   -5.9915   19.5680 H   0  0  0  0  0  0  0  0  0  0  0  0
   17.3544   -4.8270   19.2958 H   0  0  0  0  0  0  0  0  0  0  0  0
   14.5339   -4.7871   17.7748 H   0  0  0  0  0  0  0  0  0  0  0  0
  1  2  1  0
  2  3  2  0
  2  4  1  0
  4  5  1  0
  5  6  1  0
  6  7  1  0
  7  8  2  0
  8  9  1  0
  9 10  1  0
 10 11  2  0
 11 12  1  0
 12 13  1  0
 13 14  1  0
 14 15  1  0
 13 16  1  0
 16 17  1  0
 17 18  1  0
 18 19  1  0
 19 20  2  0
 20 21  1  0
 21 22  2  0
 22 23  1  0
 23 24  2  0
 24 25  1  0
 25 26  2  0
 26 27  1  0
 17 28  1  0
 28 29  1  0
 28 30  1  0
 11  7  1  0
 30 13  1  0
 15 10  1  0
 27 19  1  0
 27 23  1  0
  1 31  1  0
  1 32  1  0
  1 33  1  0
  4 34  1  0
  5 35  1  0
  5 36  1  0
  6 37  1  0
  6 38  1  0
  8 39  1  0
  9 40  1  0
 12 41  1  0
 12 42  1  0
 14 43  1  0
 14 44  1  0
 15 45  1  0
 15 46  1  0
 16 47  1  0
 17 48  1  0
 20 49  1  0
 21 50  1  0
 22 51  1  0
 26 52  1  0
 29 53  1  0
 29 54  1  0
 29 55  1  0
 30 56  1  0
M  END
>  <Energy>  (12) 
47.363436827860752

>  <compound_id>  (12) 
3088

>  <target_id>  (12) 
1

>  <reference_id>  (12) 
184

>  <inspiration_ids>  (12) 
[97, 184]

>  <energy_score>  (12) 
-33.1565427845631

>  <distance_score>  (12) 
1.3028609488363136

>  <path>  (12) 
/opt/xchem-fragalysis-2/maxwin/BulkDock/SCRATCH/505734/C3088-P184/C3088-P184.minimised.mol

>  <scratch_subdir>  (12) 
/opt/xchem-fragalysis-2/maxwin/BulkDock/SCRATCH/505734/C3088-P184

>  <fragmenstein_runtime>  (12) 
4.725714206695557

>  <fragmenstein_outcome>  (12) 
too moved

>  <fragmenstein_mode>  (12) 
expansion

>  <fragmenstein_error>  (12) 


$$$$
C3093-P98
     RDKit          3D

 42 42  0  0  0  0  0  0  0  0999 V2000
   13.0478   -3.4967   16.5395 C   0  0  0  0  0  0  0  0  0  0  0  0
   12.4549   -2.5450   15.6083 N   0  0  0  0  0  0  0  0  0  0  0  0
   13.3759   -2.1332   14.5388 C   0  0  0  0  0  0  0  0  0  0  0  0
   12.6810   -2.3298   13.1897 C   0  0  0  0  0  0  0  0  0  0  0  0
   13.7426   -0.7151   14.5214 N   0  0  0  0  0  0  0  0  0  0  0  0
   12.8766    0.2154   15.1991 C   0  0  0  0  0  0  0  0  0  0  0  0
   13.2906    0.2259   16.6496 C   0  0  0  0  0  0  0  0  0  0  0  0
   14.8290    0.0475   16.8965 C   0  0  0  0  0  0  0  0  0  0  0  0
   14.8804   -0.3653   18.3933 C   0  0  0  0  0  0  0  0  0  0  0  0
   15.5747    1.3227   16.7760 N   0  0  0  0  0  0  0  0  0  0  0  0
   15.5663   -1.1747   16.0599 N   0  0  0  0  0  0  0  0  0  0  0  0
   16.9935   -1.4006   16.5520 C   0  0  0  0  0  0  0  0  0  0  0  0
   18.0090   -0.9204   16.1933 O   0  0  0  0  0  0  0  0  0  0  0  0
   16.9528   -2.4989   17.5913 C   0  0  0  0  0  0  0  0  0  0  0  0
   17.5462   -3.7656   17.0120 C   0  0  0  0  0  0  0  0  0  0  0  0
   17.3851   -4.8921   17.9954 C   0  0  0  0  0  0  0  0  0  0  0  0
   16.0776   -5.1599   18.2152 F   0  0  0  0  0  0  0  0  0  0  0  0
   17.9589   -4.6059   19.1814 F   0  0  0  0  0  0  0  0  0  0  0  0
   17.9543   -6.0211   17.5212 F   0  0  0  0  0  0  0  0  0  0  0  0
   15.0673   -0.3891   14.9595 N   0  0  0  0  0  0  0  0  0  0  0  0
   13.8221   -3.0264   17.1436 H   0  0  0  0  0  0  0  0  0  0  0  0
   13.4754   -4.3682   16.0430 H   0  0  0  0  0  0  0  0  0  0  0  0
   12.2828   -3.8636   17.2247 H   0  0  0  0  0  0  0  0  0  0  0  0
   11.6432   -2.9899   15.1813 H   0  0  0  0  0  0  0  0  0  0  0  0
   14.2900   -2.7282   14.5448 H   0  0  0  0  0  0  0  0  0  0  0  0
   11.8769   -1.6020   13.0449 H   0  0  0  0  0  0  0  0  0  0  0  0
   12.2339   -3.3238   13.0975 H   0  0  0  0  0  0  0  0  0  0  0  0
   13.3985   -2.2052   12.3700 H   0  0  0  0  0  0  0  0  0  0  0  0
   13.0209    1.2176   14.7732 H   0  0  0  0  0  0  0  0  0  0  0  0
   11.8096   -0.0029   15.0741 H   0  0  0  0  0  0  0  0  0  0  0  0
   12.7584   -0.5817   17.1540 H   0  0  0  0  0  0  0  0  0  0  0  0
   12.9628    1.1693   17.1021 H   0  0  0  0  0  0  0  0  0  0  0  0
   15.9028   -0.3776   18.7845 H   0  0  0  0  0  0  0  0  0  0  0  0
   14.4347   -1.3470   18.5686 H   0  0  0  0  0  0  0  0  0  0  0  0
   14.3326    0.3527   19.0177 H   0  0  0  0  0  0  0  0  0  0  0  0
   16.5720    1.1162   16.7653 H   0  0  0  0  0  0  0  0  0  0  0  0
   15.3970    1.9115   17.5842 H   0  0  0  0  0  0  0  0  0  0  0  0
   17.5159   -2.1615   18.4688 H   0  0  0  0  0  0  0  0  0  0  0  0
   15.9331   -2.7067   17.9156 H   0  0  0  0  0  0  0  0  0  0  0  0
   17.0517   -4.0266   16.0688 H   0  0  0  0  0  0  0  0  0  0  0  0
   18.6084   -3.6190   16.7850 H   0  0  0  0  0  0  0  0  0  0  0  0
   15.7509   -0.4601   14.1981 H   0  0  0  0  0  0  0  0  0  0  0  0
  1  2  1  0
  2  3  1  0
  3  4  1  0
  3  5  1  0
  5  6  1  0
  6  7  1  0
  7  8  1  0
  8  9  1  0
  8 10  1  0
  8 11  1  0
 11 12  1  0
 12 13  2  0
 12 14  1  0
 14 15  1  0
 15 16  1  0
 16 17  1  0
 16 18  1  0
 16 19  1  0
 11 20  1  0
 20  5  1  0
  1 21  1  0
  1 22  1  0
  1 23  1  0
  2 24  1  0
  3 25  1  0
  4 26  1  0
  4 27  1  0
  4 28  1  0
  6 29  1  0
  6 30  1  0
  7 31  1  0
  7 32  1  0
  9 33  1  0
  9 34  1  0
  9 35  1  0
 10 36  1  0
 10 37  1  0
 14 38  1  0
 14 39  1  0
 15 40  1  0
 15 41  1  0
 20 42  1  0
M  END
>  <Energy>  (13) 
76.733936875424632

>  <compound_id>  (13) 
3093

>  <target_id>  (13) 
1

>  <reference_id>  (13) 
98

>  <inspiration_ids>  (13) 
[98, 8]

>  <energy_score>  (13) 
63.24179140281166

>  <distance_score>  (13) 
2.108290765192907

>  <path>  (13) 
/opt/xchem-fragalysis-2/maxwin/BulkDock/SCRATCH/505734/C3093-P98/C3093-P98.minimised.mol

>  <scratch_subdir>  (13) 
/opt/xchem-fragalysis-2/maxwin/BulkDock/SCRATCH/505734/C3093-P98

>  <fragmenstein_runtime>  (13) 
3.2468183040618896

>  <fragmenstein_outcome>  (13) 
too moved

>  <fragmenstein_mode>  (13) 
expansion

>  <fragmenstein_error>  (13) 


$$$$
C3093-P8
     RDKit          3D

 42 42  0  0  0  0  0  0  0  0999 V2000
   12.8683   -4.1075   16.8236 C   0  0  0  0  0  0  0  0  0  0  0  0
   12.8073   -2.6960   16.4998 N   0  0  0  0  0  0  0  0  0  0  0  0
   12.6553   -2.4157   15.0783 C   0  0  0  0  0  0  0  0  0  0  0  0
   11.2882   -2.8046   14.5510 C   0  0  0  0  0  0  0  0  0  0  0  0
   12.9095   -0.9968   14.7896 N   0  0  0  0  0  0  0  0  0  0  0  0
   12.2177   -0.0663   15.6684 C   0  0  0  0  0  0  0  0  0  0  0  0
   13.2237    0.9851   16.0951 C   0  0  0  0  0  0  0  0  0  0  0  0
   14.6101    0.3249   16.4889 C   0  0  0  0  0  0  0  0  0  0  0  0
   14.5278    0.0244   18.0063 C   0  0  0  0  0  0  0  0  0  0  0  0
   15.6638    1.3324   16.2746 N   0  0  0  0  0  0  0  0  0  0  0  0
   15.0571   -1.1487   15.8460 N   0  0  0  0  0  0  0  0  0  0  0  0
   16.5565   -1.3953   16.0127 C   0  0  0  0  0  0  0  0  0  0  0  0
   17.4574   -1.1276   15.3005 O   0  0  0  0  0  0  0  0  0  0  0  0
   16.7329   -2.1935   17.2891 C   0  0  0  0  0  0  0  0  0  0  0  0
   17.4302   -3.5081   16.9864 C   0  0  0  0  0  0  0  0  0  0  0  0
   17.4414   -4.3805   18.2134 C   0  0  0  0  0  0  0  0  0  0  0  0
   16.1812   -4.6963   18.5888 F   0  0  0  0  0  0  0  0  0  0  0  0
   18.0458   -3.7682   19.2519 F   0  0  0  0  0  0  0  0  0  0  0  0
   18.0964   -5.5356   17.9726 F   0  0  0  0  0  0  0  0  0  0  0  0
   14.3214   -0.6164   14.7473 N   0  0  0  0  0  0  0  0  0  0  0  0
   13.6991   -4.5913   16.3069 H   0  0  0  0  0  0  0  0  0  0  0  0
   11.9361   -4.6238   16.5922 H   0  0  0  0  0  0  0  0  0  0  0  0
   13.0437   -4.2198   17.8983 H   0  0  0  0  0  0  0  0  0  0  0  0
   13.7166   -2.2951   16.7204 H   0  0  0  0  0  0  0  0  0  0  0  0
   13.4013   -2.9499   14.5142 H   0  0  0  0  0  0  0  0  0  0  0  0
   10.4901   -2.1660   14.9428 H   0  0  0  0  0  0  0  0  0  0  0  0
   11.0246   -3.8360   14.7874 H   0  0  0  0  0  0  0  0  0  0  0  0
   11.3106   -2.7341   13.4620 H   0  0  0  0  0  0  0  0  0  0  0  0
   11.3910    0.4071   15.1268 H   0  0  0  0  0  0  0  0  0  0  0  0
   11.7791   -0.5251   16.5574 H   0  0  0  0  0  0  0  0  0  0  0  0
   12.8244    1.6088   16.9038 H   0  0  0  0  0  0  0  0  0  0  0  0
   13.3721    1.6804   15.2528 H   0  0  0  0  0  0  0  0  0  0  0  0
   15.5089   -0.1847   18.4416 H   0  0  0  0  0  0  0  0  0  0  0  0
   13.8850   -0.8282   18.2183 H   0  0  0  0  0  0  0  0  0  0  0  0
   14.1375    0.8843   18.5639 H   0  0  0  0  0  0  0  0  0  0  0  0
   16.5639    1.0017   16.6085 H   0  0  0  0  0  0  0  0  0  0  0  0
   15.4447    2.1774   16.7965 H   0  0  0  0  0  0  0  0  0  0  0  0
   15.7671   -2.3998   17.7593 H   0  0  0  0  0  0  0  0  0  0  0  0
   17.3249   -1.5912   17.9872 H   0  0  0  0  0  0  0  0  0  0  0  0
   16.9189   -4.0318   16.1696 H   0  0  0  0  0  0  0  0  0  0  0  0
   18.4579   -3.3239   16.6529 H   0  0  0  0  0  0  0  0  0  0  0  0
   14.7762   -0.9390   13.8843 H   0  0  0  0  0  0  0  0  0  0  0  0
  1  2  1  0
  2  3  1  0
  3  4  1  0
  3  5  1  0
  5  6  1  0
  6  7  1  0
  7  8  1  0
  8  9  1  0
  8 10  1  0
  8 11  1  0
 11 12  1  0
 12 13  2  0
 12 14  1  0
 14 15  1  0
 15 16  1  0
 16 17  1  0
 16 18  1  0
 16 19  1  0
 11 20  1  0
 20  5  1  0
  1 21  1  0
  1 22  1  0
  1 23  1  0
  2 24  1  0
  3 25  1  0
  4 26  1  0
  4 27  1  0
  4 28  1  0
  6 29  1  0
  6 30  1  0
  7 31  1  0
  7 32  1  0
  9 33  1  0
  9 34  1  0
  9 35  1  0
 10 36  1  0
 10 37  1  0
 14 38  1  0
 14 39  1  0
 15 40  1  0
 15 41  1  0
 20 42  1  0
M  END
>  <Energy>  (14) 
75.634435263202505

>  <compound_id>  (14) 
3093

>  <target_id>  (14) 
1

>  <reference_id>  (14) 
8

>  <inspiration_ids>  (14) 
[98, 8]

>  <energy_score>  (14) 
62.1422897905893

>  <distance_score>  (14) 
2.1211613977667785

>  <path>  (14) 
/opt/xchem-fragalysis-2/maxwin/BulkDock/SCRATCH/505734/C3093-P8/C3093-P8.minimised.mol

>  <scratch_subdir>  (14) 
/opt/xchem-fragalysis-2/maxwin/BulkDock/SCRATCH/505734/C3093-P8

>  <fragmenstein_runtime>  (14) 
3.1630570888519287

>  <fragmenstein_outcome>  (14) 
too moved

>  <fragmenstein_mode>  (14) 
expansion

>  <fragmenstein_error>  (14) 


$$$$
C3094-P98
     RDKit          3D

 26 26  0  0  0  0  0  0  0  0999 V2000
   17.3543   -2.5482   15.7605 C   0  0  0  0  0  0  0  0  0  0  0  0
   17.1790   -3.4195   16.9978 C   0  0  0  0  0  0  0  0  0  0  0  0
   16.0929   -2.9109   17.9621 C   0  0  0  0  0  0  0  0  0  0  0  0
   16.2255   -3.5775   19.2339 N   0  0  0  0  0  0  0  0  0  0  0  0
   16.3062   -1.5572   18.2645 O   0  0  0  0  0  0  0  0  0  0  0  0
   14.7499   -3.0817   17.4820 N   0  0  0  0  0  0  0  0  0  0  0  0
   14.0875   -4.2991   17.4997 C   0  0  0  0  0  0  0  0  0  0  0  0
   14.4584   -5.3464   18.0102 O   0  0  0  0  0  0  0  0  0  0  0  0
   12.7962   -4.1236   16.7458 C   0  0  0  0  0  0  0  0  0  0  0  0
   12.9692   -2.7644   16.1706 C   0  0  0  0  0  0  0  0  0  0  0  0
   12.0126   -2.2153   15.1965 C   0  0  0  0  0  0  0  0  0  0  0  0
   11.8719   -3.0286   14.1233 F   0  0  0  0  0  0  0  0  0  0  0  0
   12.3629   -0.9933   14.7324 F   0  0  0  0  0  0  0  0  0  0  0  0
   10.7793   -2.0800   15.7521 F   0  0  0  0  0  0  0  0  0  0  0  0
   14.0880   -2.2224   16.6431 C   0  0  0  0  0  0  0  0  0  0  0  0
   14.5157   -1.0095   16.2737 F   0  0  0  0  0  0  0  0  0  0  0  0
   17.5763   -1.5094   16.0226 H   0  0  0  0  0  0  0  0  0  0  0  0
   16.4626   -2.5671   15.1279 H   0  0  0  0  0  0  0  0  0  0  0  0
   18.1887   -2.9235   15.1585 H   0  0  0  0  0  0  0  0  0  0  0  0
   16.9763   -4.4530   16.6909 H   0  0  0  0  0  0  0  0  0  0  0  0
   18.1487   -3.4227   17.5143 H   0  0  0  0  0  0  0  0  0  0  0  0
   16.0222   -4.5703   19.0802 H   0  0  0  0  0  0  0  0  0  0  0  0
   15.4510   -3.2566   19.8142 H   0  0  0  0  0  0  0  0  0  0  0  0
   16.9389   -1.6105   19.0009 H   0  0  0  0  0  0  0  0  0  0  0  0
   12.7480   -4.8995   16.0079 H   0  0  0  0  0  0  0  0  0  0  0  0
   11.9549   -4.1959   17.4150 H   0  0  0  0  0  0  0  0  0  0  0  0
  1  2  1  0
  2  3  1  0
  3  4  1  0
  3  5  1  0
  3  6  1  0
  6  7  1  0
  7  8  2  0
  7  9  1  0
  9 10  1  0
 10 11  1  0
 11 12  1  0
 11 13  1  0
 11 14  1  0
 10 15  2  0
 15 16  1  0
 15  6  1  0
  1 17  1  0
  1 18  1  0
  1 19  1  0
  2 20  1  0
  2 21  1  0
  4 22  1  0
  4 23  1  0
  5 24  1  0
  9 25  1  0
  9 26  1  0
M  END
>  <Energy>  (15) 
-153.52842002551895

>  <compound_id>  (15) 
3094

>  <target_id>  (15) 
1

>  <reference_id>  (15) 
98

>  <inspiration_ids>  (15) 
[98, 10]

>  <energy_score>  (15) 
-25.786508705242724

>  <distance_score>  (15) 
0.6425063762420905

>  <path>  (15) 
/opt/xchem-fragalysis-2/maxwin/BulkDock/SCRATCH/505734/C3094-P98/C3094-P98.minimised.mol

>  <scratch_subdir>  (15) 
/opt/xchem-fragalysis-2/maxwin/BulkDock/SCRATCH/505734/C3094-P98

>  <fragmenstein_runtime>  (15) 
1.9575443267822266

>  <fragmenstein_outcome>  (15) 
acceptable

>  <fragmenstein_mode>  (15) 
expansion

>  <fragmenstein_error>  (15) 


$$$$
C3094-P10
     RDKit          3D

 26 26  0  0  0  0  0  0  0  0999 V2000
   17.3511   -2.4909   15.7432 C   0  0  0  0  0  0  0  0  0  0  0  0
   17.1742   -3.3649   16.9778 C   0  0  0  0  0  0  0  0  0  0  0  0
   16.0871   -2.8573   17.9418 C   0  0  0  0  0  0  0  0  0  0  0  0
   16.2130   -3.5358   19.2084 N   0  0  0  0  0  0  0  0  0  0  0  0
   16.3049   -1.5072   18.2572 O   0  0  0  0  0  0  0  0  0  0  0  0
   14.7449   -3.0178   17.4556 N   0  0  0  0  0  0  0  0  0  0  0  0
   14.0876   -4.2370   17.4491 C   0  0  0  0  0  0  0  0  0  0  0  0
   14.4606   -5.2868   17.9514 O   0  0  0  0  0  0  0  0  0  0  0  0
   12.8038   -4.0582   16.6855 C   0  0  0  0  0  0  0  0  0  0  0  0
   12.9684   -2.6865   16.1420 C   0  0  0  0  0  0  0  0  0  0  0  0
   12.0052   -2.1350   15.1752 C   0  0  0  0  0  0  0  0  0  0  0  0
   11.8846   -2.9307   14.0871 F   0  0  0  0  0  0  0  0  0  0  0  0
   12.3400   -0.8993   14.7368 F   0  0  0  0  0  0  0  0  0  0  0  0
   10.7705   -2.0312   15.7306 F   0  0  0  0  0  0  0  0  0  0  0  0
   14.0829   -2.1474   16.6280 C   0  0  0  0  0  0  0  0  0  0  0  0
   14.5061   -0.9263   16.2824 F   0  0  0  0  0  0  0  0  0  0  0  0
   17.5739   -1.4530   16.0085 H   0  0  0  0  0  0  0  0  0  0  0  0
   16.4594   -2.5067   15.1104 H   0  0  0  0  0  0  0  0  0  0  0  0
   18.1852   -2.8653   15.1404 H   0  0  0  0  0  0  0  0  0  0  0  0
   16.9708   -4.3973   16.6675 H   0  0  0  0  0  0  0  0  0  0  0  0
   18.1432   -3.3706   17.4955 H   0  0  0  0  0  0  0  0  0  0  0  0
   16.0097   -4.5270   19.0434 H   0  0  0  0  0  0  0  0  0  0  0  0
   15.4382   -3.2176   19.7884 H   0  0  0  0  0  0  0  0  0  0  0  0
   16.9587   -1.5684   18.9743 H   0  0  0  0  0  0  0  0  0  0  0  0
   12.7696   -4.8131   15.9268 H   0  0  0  0  0  0  0  0  0  0  0  0
   11.9548   -4.1544   17.3392 H   0  0  0  0  0  0  0  0  0  0  0  0
  1  2  1  0
  2  3  1  0
  3  4  1  0
  3  5  1  0
  3  6  1  0
  6  7  1  0
  7  8  2  0
  7  9  1  0
  9 10  1  0
 10 11  1  0
 11 12  1  0
 11 13  1  0
 11 14  1  0
 10 15  2  0
 15 16  1  0
 15  6  1  0
  1 17  1  0
  1 18  1  0
  1 19  1  0
  2 20  1  0
  2 21  1  0
  4 22  1  0
  4 23  1  0
  5 24  1  0
  9 25  1  0
  9 26  1  0
M  END
>  <Energy>  (16) 
-153.61759193983178

>  <compound_id>  (16) 
3094

>  <target_id>  (16) 
1

>  <reference_id>  (16) 
10

>  <inspiration_ids>  (16) 
[98, 10]

>  <energy_score>  (16) 
-25.875680619554515

>  <distance_score>  (16) 
0.647784219734067

>  <path>  (16) 
/opt/xchem-fragalysis-2/maxwin/BulkDock/SCRATCH/505734/C3094-P10/C3094-P10.minimised.mol

>  <scratch_subdir>  (16) 
/opt/xchem-fragalysis-2/maxwin/BulkDock/SCRATCH/505734/C3094-P10

>  <fragmenstein_runtime>  (16) 
1.9418516159057617

>  <fragmenstein_outcome>  (16) 
acceptable

>  <fragmenstein_mode>  (16) 
expansion

>  <fragmenstein_error>  (16) 


$$$$
C3095-P98
     RDKit          3D

 35 36  0  0  0  0  0  0  0  0999 V2000
   18.1680   -2.5335   12.6470 C   0  0  0  0  0  0  0  0  0  0  0  0
   18.1782   -2.5018   14.1614 C   0  0  0  0  0  0  0  0  0  0  0  0
   19.1491   -2.6926   14.7955 O   0  0  0  0  0  0  0  0  0  0  0  0
   16.7561   -2.2215   14.6054 N   0  0  0  0  0  0  0  0  0  0  0  0
   16.5119   -0.7239   14.7616 C   0  0  0  0  0  0  0  0  0  0  0  0
   15.1779   -0.2187   14.2098 C   0  0  0  0  0  0  0  0  0  0  0  0
   13.9351   -0.3927   15.0774 C   0  0  0  0  0  0  0  0  0  0  0  0
   13.9793    0.4074   16.3727 C   0  0  0  0  0  0  0  0  0  0  0  0
   12.8658    0.1178   14.2824 O   0  0  0  0  0  0  0  0  0  0  0  0
   13.6935   -1.7707   15.4037 N   0  0  0  0  0  0  0  0  0  0  0  0
   12.4283   -2.2449   15.7613 C   0  0  0  0  0  0  0  0  0  0  0  0
   11.3502   -1.6939   15.5992 O   0  0  0  0  0  0  0  0  0  0  0  0
   12.6140   -3.5353   16.4910 C   0  0  0  0  0  0  0  0  0  0  0  0
   14.0976   -3.5848   16.5755 C   0  0  0  0  0  0  0  0  0  0  0  0
   14.6746   -4.6337   17.4045 C   0  0  0  0  0  0  0  0  0  0  0  0
   15.6969   -5.2824   16.8082 F   0  0  0  0  0  0  0  0  0  0  0  0
   15.1235   -4.1661   18.5854 F   0  0  0  0  0  0  0  0  0  0  0  0
   13.7260   -5.5463   17.6949 F   0  0  0  0  0  0  0  0  0  0  0  0
   14.6845   -2.5592   15.9550 C   0  0  0  0  0  0  0  0  0  0  0  0
   16.1501   -2.2051   15.9678 C   0  0  0  0  0  0  0  0  0  0  0  0
   17.1565   -2.4534   12.2392 H   0  0  0  0  0  0  0  0  0  0  0  0
   18.5992   -3.4804   12.3097 H   0  0  0  0  0  0  0  0  0  0  0  0
   18.7669   -1.7001   12.2700 H   0  0  0  0  0  0  0  0  0  0  0  0
   16.9150   -0.1809   15.6351 H   0  0  0  0  0  0  0  0  0  0  0  0
   17.2156   -0.3142   14.0146 H   0  0  0  0  0  0  0  0  0  0  0  0
   15.0018   -0.6990   13.2357 H   0  0  0  0  0  0  0  0  0  0  0  0
   15.2878    0.8500   13.9751 H   0  0  0  0  0  0  0  0  0  0  0  0
   14.1253    1.4730   16.1601 H   0  0  0  0  0  0  0  0  0  0  0  0
   13.0289    0.3353   16.9070 H   0  0  0  0  0  0  0  0  0  0  0  0
   14.7714    0.0901   17.0562 H   0  0  0  0  0  0  0  0  0  0  0  0
   12.0461   -0.3417   14.5546 H   0  0  0  0  0  0  0  0  0  0  0  0
   12.2129   -3.4510   17.4940 H   0  0  0  0  0  0  0  0  0  0  0  0
   12.1618   -4.3615   15.9562 H   0  0  0  0  0  0  0  0  0  0  0  0
   16.4493   -1.4986   16.7608 H   0  0  0  0  0  0  0  0  0  0  0  0
   16.6502   -3.0929   16.3901 H   0  0  0  0  0  0  0  0  0  0  0  0
  1  2  1  0
  2  3  2  0
  2  4  1  0
  4  5  1  0
  5  6  1  0
  6  7  1  0
  7  8  1  0
  7  9  1  0
  7 10  1  0
 10 11  1  0
 11 12  2  0
 11 13  1  0
 13 14  1  0
 14 15  1  0
 15 16  1  0
 15 17  1  0
 15 18  1  0
 14 19  2  0
 19 20  1  0
 20  4  1  0
 19 10  1  0
  1 21  1  0
  1 22  1  0
  1 23  1  0
  5 24  1  0
  5 25  1  0
  6 26  1  0
  6 27  1  0
  8 28  1  0
  8 29  1  0
  8 30  1  0
  9 31  1  0
 13 32  1  0
 13 33  1  0
 20 34  1  0
 20 35  1  0
M  END
>  <Energy>  (17) 
56.630234885663469

>  <compound_id>  (17) 
3095

>  <target_id>  (17) 
1

>  <reference_id>  (17) 
98

>  <inspiration_ids>  (17) 
[98, 12]

>  <energy_score>  (17) 
38.26821165560432

>  <distance_score>  (17) 
2.4439792652521475

>  <path>  (17) 
/opt/xchem-fragalysis-2/maxwin/BulkDock/SCRATCH/505734/C3095-P98/C3095-P98.minimised.mol

>  <scratch_subdir>  (17) 
/opt/xchem-fragalysis-2/maxwin/BulkDock/SCRATCH/505734/C3095-P98

>  <fragmenstein_runtime>  (17) 
4.228745460510254

>  <fragmenstein_outcome>  (17) 
too moved

>  <fragmenstein_mode>  (17) 
expansion

>  <fragmenstein_error>  (17) 


$$$$
C3095-P12
     RDKit          3D

 35 36  0  0  0  0  0  0  0  0999 V2000
   18.5911   -1.8091   14.3158 C   0  0  0  0  0  0  0  0  0  0  0  0
   18.0058   -1.8252   15.7134 C   0  0  0  0  0  0  0  0  0  0  0  0
   18.6720   -2.1896   16.6444 O   0  0  0  0  0  0  0  0  0  0  0  0
   16.6433   -1.4083   15.6549 N   0  0  0  0  0  0  0  0  0  0  0  0
   16.5495    0.1054   15.8522 C   0  0  0  0  0  0  0  0  0  0  0  0
   15.5384    0.8349   14.9601 C   0  0  0  0  0  0  0  0  0  0  0  0
   14.0800    0.8513   15.4266 C   0  0  0  0  0  0  0  0  0  0  0  0
   13.8733    1.6127   16.7341 C   0  0  0  0  0  0  0  0  0  0  0  0
   13.3846    1.5673   14.4045 O   0  0  0  0  0  0  0  0  0  0  0  0
   13.5423   -0.4886   15.5095 N   0  0  0  0  0  0  0  0  0  0  0  0
   12.2042   -0.8176   15.3092 C   0  0  0  0  0  0  0  0  0  0  0  0
   11.3018   -0.0409   15.0379 O   0  0  0  0  0  0  0  0  0  0  0  0
   12.0533   -2.3018   15.5361 C   0  0  0  0  0  0  0  0  0  0  0  0
   13.3759   -2.5831   16.1747 C   0  0  0  0  0  0  0  0  0  0  0  0
   13.6204   -3.8879   16.8021 C   0  0  0  0  0  0  0  0  0  0  0  0
   14.7427   -4.4648   16.3140 F   0  0  0  0  0  0  0  0  0  0  0  0
   13.7938   -3.7707   18.1419 F   0  0  0  0  0  0  0  0  0  0  0  0
   12.5839   -4.7288   16.6100 F   0  0  0  0  0  0  0  0  0  0  0  0
   14.2023   -1.5305   16.1156 C   0  0  0  0  0  0  0  0  0  0  0  0
   15.5834   -1.3981   16.7039 C   0  0  0  0  0  0  0  0  0  0  0  0
   17.8558   -1.5039   13.5655 H   0  0  0  0  0  0  0  0  0  0  0  0
   18.9398   -2.8151   14.0659 H   0  0  0  0  0  0  0  0  0  0  0  0
   19.4306   -1.1091   14.2889 H   0  0  0  0  0  0  0  0  0  0  0  0
   17.5043    0.4533   15.4186 H   0  0  0  0  0  0  0  0  0  0  0  0
   16.6881    0.5188   16.8664 H   0  0  0  0  0  0  0  0  0  0  0  0
   15.5908    0.4100   13.9470 H   0  0  0  0  0  0  0  0  0  0  0  0
   15.8732    1.8758   14.8441 H   0  0  0  0  0  0  0  0  0  0  0  0
   14.2809    2.6275   16.6597 H   0  0  0  0  0  0  0  0  0  0  0  0
   12.8055    1.7293   16.9504 H   0  0  0  0  0  0  0  0  0  0  0  0
   14.3351    1.1201   17.5936 H   0  0  0  0  0  0  0  0  0  0  0  0
   12.4361    1.3467   14.5013 H   0  0  0  0  0  0  0  0  0  0  0  0
   11.2203   -2.4897   16.2102 H   0  0  0  0  0  0  0  0  0  0  0  0
   11.9253   -2.8251   14.5859 H   0  0  0  0  0  0  0  0  0  0  0  0
   15.6423   -0.7675   17.6056 H   0  0  0  0  0  0  0  0  0  0  0  0
   15.7873   -2.3649   17.1925 H   0  0  0  0  0  0  0  0  0  0  0  0
  1  2  1  0
  2  3  2  0
  2  4  1  0
  4  5  1  0
  5  6  1  0
  6  7  1  0
  7  8  1  0
  7  9  1  0
  7 10  1  0
 10 11  1  0
 11 12  2  0
 11 13  1  0
 13 14  1  0
 14 15  1  0
 15 16  1  0
 15 17  1  0
 15 18  1  0
 14 19  2  0
 19 20  1  0
 20  4  1  0
 19 10  1  0
  1 21  1  0
  1 22  1  0
  1 23  1  0
  5 24  1  0
  5 25  1  0
  6 26  1  0
  6 27  1  0
  8 28  1  0
  8 29  1  0
  8 30  1  0
  9 31  1  0
 13 32  1  0
 13 33  1  0
 20 34  1  0
 20 35  1  0
M  END
>  <Energy>  (18) 
39.734940977496223

>  <compound_id>  (18) 
3095

>  <target_id>  (18) 
1

>  <reference_id>  (18) 
12

>  <inspiration_ids>  (18) 
[98, 12]

>  <energy_score>  (18) 
37.86416389820361

>  <distance_score>  (18) 
2.9936131802580426

>  <path>  (18) 
/opt/xchem-fragalysis-2/maxwin/BulkDock/SCRATCH/505734/C3095-P12/C3095-P12.minimised.mol

>  <scratch_subdir>  (18) 
/opt/xchem-fragalysis-2/maxwin/BulkDock/SCRATCH/505734/C3095-P12

>  <fragmenstein_runtime>  (18) 
4.669376611709595

>  <fragmenstein_outcome>  (18) 
too moved

>  <fragmenstein_mode>  (18) 
expansion

>  <fragmenstein_error>  (18) 


$$$$
C3096-P98
     RDKit          3D

 36 37  0  0  0  0  0  0  0  0999 V2000
   13.4413   -4.5538   19.0374 C   0  0  0  0  0  0  0  0  0  0  0  0
   13.2975   -3.8508   17.6845 C   0  0  0  0  0  0  0  0  0  0  0  0
   14.3792   -2.7854   17.6527 C   0  0  0  0  0  0  0  0  0  0  0  0
   14.4465   -1.7865   16.4902 C   0  0  0  0  0  0  0  0  0  0  0  0
   15.8983   -1.2693   16.3489 C   0  0  0  0  0  0  0  0  0  0  0  0
   16.3525   -0.4957   17.5917 C   0  0  0  0  0  0  0  0  0  0  0  0
   16.2663    0.9036   17.6101 C   0  0  0  0  0  0  0  0  0  0  0  0
   16.3818    1.6113   18.8098 C   0  0  0  0  0  0  0  0  0  0  0  0
   16.6091    0.9349   20.0048 C   0  0  0  0  0  0  0  0  0  0  0  0
   16.7787   -0.4451   19.9924 C   0  0  0  0  0  0  0  0  0  0  0  0
   16.6850   -1.1506   18.7898 C   0  0  0  0  0  0  0  0  0  0  0  0
   13.9130   -2.5122   15.2856 N   0  0  0  0  0  0  0  0  0  0  0  0
   12.6910   -2.0614   15.1224 C   0  0  0  0  0  0  0  0  0  0  0  0
   11.5310   -2.8102   14.5559 C   0  0  0  0  0  0  0  0  0  0  0  0
   10.3736   -2.1445   14.8038 F   0  0  0  0  0  0  0  0  0  0  0  0
   11.3743   -3.9900   15.1929 F   0  0  0  0  0  0  0  0  0  0  0  0
   11.6421   -3.0513   13.2375 F   0  0  0  0  0  0  0  0  0  0  0  0
   12.4136   -0.7024   15.6419 C   0  0  0  0  0  0  0  0  0  0  0  0
   13.4854   -0.6081   16.6457 C   0  0  0  0  0  0  0  0  0  0  0  0
   13.5162    0.2989   17.4611 O   0  0  0  0  0  0  0  0  0  0  0  0
   14.4037   -5.0722   19.1060 H   0  0  0  0  0  0  0  0  0  0  0  0
   13.3841   -3.8396   19.8662 H   0  0  0  0  0  0  0  0  0  0  0  0
   12.6600   -5.2871   19.2032 H   0  0  0  0  0  0  0  0  0  0  0  0
   12.3165   -3.4014   17.5704 H   0  0  0  0  0  0  0  0  0  0  0  0
   13.4320   -4.5820   16.8809 H   0  0  0  0  0  0  0  0  0  0  0  0
   14.3180   -2.2204   18.5899 H   0  0  0  0  0  0  0  0  0  0  0  0
   15.3222   -3.3486   17.6727 H   0  0  0  0  0  0  0  0  0  0  0  0
   15.9786   -0.6185   15.4683 H   0  0  0  0  0  0  0  0  0  0  0  0
   16.5934   -2.0989   16.1670 H   0  0  0  0  0  0  0  0  0  0  0  0
   16.0165    1.4531   16.7056 H   0  0  0  0  0  0  0  0  0  0  0  0
   16.2582    2.6909   18.8140 H   0  0  0  0  0  0  0  0  0  0  0  0
   16.6718    1.4841   20.9399 H   0  0  0  0  0  0  0  0  0  0  0  0
   16.9806   -0.9760   20.9190 H   0  0  0  0  0  0  0  0  0  0  0  0
   16.8197   -2.2285   18.8181 H   0  0  0  0  0  0  0  0  0  0  0  0
   12.5394    0.0410   14.8533 H   0  0  0  0  0  0  0  0  0  0  0  0
   11.4380   -0.6336   16.1222 H   0  0  0  0  0  0  0  0  0  0  0  0
  1  2  1  0
  2  3  1  0
  3  4  1  0
  4  5  1  0
  5  6  1  0
  6  7  2  0
  7  8  1  0
  8  9  2  0
  9 10  1  0
 10 11  2  0
  4 12  1  0
 12 13  2  0
 13 14  1  0
 14 15  1  0
 14 16  1  0
 14 17  1  0
 13 18  1  0
 18 19  1  0
 19 20  2  0
 19  4  1  0
 11  6  1  0
  1 21  1  0
  1 22  1  0
  1 23  1  0
  2 24  1  0
  2 25  1  0
  3 26  1  0
  3 27  1  0
  5 28  1  0
  5 29  1  0
  7 30  1  0
  8 31  1  0
  9 32  1  0
 10 33  1  0
 11 34  1  0
 18 35  1  0
 18 36  1  0
M  END
>  <Energy>  (19) 
121.13515314714314

>  <compound_id>  (19) 
3096

>  <target_id>  (19) 
1

>  <reference_id>  (19) 
98

>  <inspiration_ids>  (19) 
[98, 23]

>  <energy_score>  (19) 
-0.4654805804862008

>  <distance_score>  (19) 
1.4631947385266517

>  <path>  (19) 
/opt/xchem-fragalysis-2/maxwin/BulkDock/SCRATCH/505734/C3096-P98/C3096-P98.minimised.mol

>  <scratch_subdir>  (19) 
/opt/xchem-fragalysis-2/maxwin/BulkDock/SCRATCH/505734/C3096-P98

>  <fragmenstein_runtime>  (19) 
7.386489629745483

>  <fragmenstein_outcome>  (19) 
too moved

>  <fragmenstein_mode>  (19) 
expansion

>  <fragmenstein_error>  (19) 


$$$$
C3096-P23
     RDKit          3D

 36 37  0  0  0  0  0  0  0  0999 V2000
   12.6282   -4.4701   17.2185 C   0  0  0  0  0  0  0  0  0  0  0  0
   12.9199   -3.1324   16.6178 C   0  0  0  0  0  0  0  0  0  0  0  0
   14.2113   -2.5870   17.2181 C   0  0  0  0  0  0  0  0  0  0  0  0
   15.0890   -1.6673   16.3431 C   0  0  0  0  0  0  0  0  0  0  0  0
   16.5386   -1.6595   16.8735 C   0  0  0  0  0  0  0  0  0  0  0  0
   16.6356   -1.0226   18.2600 C   0  0  0  0  0  0  0  0  0  0  0  0
   16.9763    0.3332   18.3808 C   0  0  0  0  0  0  0  0  0  0  0  0
   16.7969    1.0118   19.5880 C   0  0  0  0  0  0  0  0  0  0  0  0
   16.3129    0.3358   20.7036 C   0  0  0  0  0  0  0  0  0  0  0  0
   16.0482   -1.0282   20.6230 C   0  0  0  0  0  0  0  0  0  0  0  0
   16.2313   -1.7083   19.4160 C   0  0  0  0  0  0  0  0  0  0  0  0
   14.9493   -2.2337   14.9567 N   0  0  0  0  0  0  0  0  0  0  0  0
   14.0476   -1.4697   14.3855 C   0  0  0  0  0  0  0  0  0  0  0  0
   13.0955   -1.8474   13.3136 C   0  0  0  0  0  0  0  0  0  0  0  0
   12.3452   -2.9394   13.6068 F   0  0  0  0  0  0  0  0  0  0  0  0
   13.7277   -2.0201   12.1341 F   0  0  0  0  0  0  0  0  0  0  0  0
   12.1772   -0.8665   13.1677 F   0  0  0  0  0  0  0  0  0  0  0  0
   13.9533   -0.0756   14.8681 C   0  0  0  0  0  0  0  0  0  0  0  0
   14.5894   -0.2307   16.1800 C   0  0  0  0  0  0  0  0  0  0  0  0
   14.6553    0.6998   16.9661 O   0  0  0  0  0  0  0  0  0  0  0  0
   13.3382   -5.2022   16.8306 H   0  0  0  0  0  0  0  0  0  0  0  0
   12.7134   -4.4664   18.3073 H   0  0  0  0  0  0  0  0  0  0  0  0
   11.6295   -4.7691   16.9041 H   0  0  0  0  0  0  0  0  0  0  0  0
   12.0848   -2.4483   16.7431 H   0  0  0  0  0  0  0  0  0  0  0  0
   12.9937   -3.3385   15.5628 H   0  0  0  0  0  0  0  0  0  0  0  0
   13.9713   -2.0804   18.1525 H   0  0  0  0  0  0  0  0  0  0  0  0
   14.8290   -3.4560   17.4860 H   0  0  0  0  0  0  0  0  0  0  0  0
   17.1889   -1.1118   16.1784 H   0  0  0  0  0  0  0  0  0  0  0  0
   16.9471   -2.6774   16.9146 H   0  0  0  0  0  0  0  0  0  0  0  0
   17.3008    0.8999   17.5106 H   0  0  0  0  0  0  0  0  0  0  0  0
   17.0150    2.0745   19.6480 H   0  0  0  0  0  0  0  0  0  0  0  0
   16.1581    0.8658   21.6392 H   0  0  0  0  0  0  0  0  0  0  0  0
   15.6845   -1.5631   21.4973 H   0  0  0  0  0  0  0  0  0  0  0  0
   15.9998   -2.7700   19.3815 H   0  0  0  0  0  0  0  0  0  0  0  0
   14.5325    0.5872   14.2228 H   0  0  0  0  0  0  0  0  0  0  0  0
   12.9241    0.2499   14.9673 H   0  0  0  0  0  0  0  0  0  0  0  0
  1  2  1  0
  2  3  1  0
  3  4  1  0
  4  5  1  0
  5  6  1  0
  6  7  2  0
  7  8  1  0
  8  9  2  0
  9 10  1  0
 10 11  2  0
  4 12  1  0
 12 13  2  0
 13 14  1  0
 14 15  1  0
 14 16  1  0
 14 17  1  0
 13 18  1  0
 18 19  1  0
 19 20  2  0
 19  4  1  0
 11  6  1  0
  1 21  1  0
  1 22  1  0
  1 23  1  0
  2 24  1  0
  2 25  1  0
  3 26  1  0
  3 27  1  0
  5 28  1  0
  5 29  1  0
  7 30  1  0
  8 31  1  0
  9 32  1  0
 10 33  1  0
 11 34  1  0
 18 35  1  0
 18 36  1  0
M  END
>  <Energy>  (20) 
127.4711773042179

>  <compound_id>  (20) 
3096

>  <target_id>  (20) 
1

>  <reference_id>  (20) 
23

>  <inspiration_ids>  (20) 
[98, 23]

>  <energy_score>  (20) 
5.87054357659116

>  <distance_score>  (20) 
1.6596500831309058

>  <path>  (20) 
/opt/xchem-fragalysis-2/maxwin/BulkDock/SCRATCH/505734/C3096-P23/C3096-P23.minimised.mol

>  <scratch_subdir>  (20) 
/opt/xchem-fragalysis-2/maxwin/BulkDock/SCRATCH/505734/C3096-P23

>  <fragmenstein_runtime>  (20) 
7.269103765487671

>  <fragmenstein_outcome>  (20) 
too moved

>  <fragmenstein_mode>  (20) 
expansion

>  <fragmenstein_error>  (20) 


$$$$
C3097-P98
     RDKit          3D

 42 44  0  0  0  0  0  0  0  0999 V2000
   17.2129   -3.9916   15.9641 C   0  0  0  0  0  0  0  0  0  0  0  0
   16.4291   -2.7962   16.4905 C   0  0  0  0  0  0  0  0  0  0  0  0
   14.9917   -2.9052   16.2666 N   0  0  0  0  0  0  0  0  0  0  0  0
   14.2845   -3.9353   16.8739 C   0  0  0  0  0  0  0  0  0  0  0  0
   14.7252   -4.8967   17.4868 O   0  0  0  0  0  0  0  0  0  0  0  0
   12.8356   -3.6901   16.6965 C   0  0  0  0  0  0  0  0  0  0  0  0
   12.7174   -2.2999   16.0975 C   0  0  0  0  0  0  0  0  0  0  0  0
   11.7064   -2.2730   14.9783 C   0  0  0  0  0  0  0  0  0  0  0  0
   10.5967   -2.9512   15.3095 F   0  0  0  0  0  0  0  0  0  0  0  0
   12.1584   -2.8062   13.8381 F   0  0  0  0  0  0  0  0  0  0  0  0
   11.3319   -0.9996   14.7538 F   0  0  0  0  0  0  0  0  0  0  0  0
   14.1500   -1.8002   15.7677 C   0  0  0  0  0  0  0  0  0  0  0  0
   14.3798   -1.5259   14.2585 C   0  0  0  0  0  0  0  0  0  0  0  0
   15.3244   -0.3851   13.9352 C   0  0  0  0  0  0  0  0  0  0  0  0
   14.9086    0.8907   14.6527 C   0  0  0  0  0  0  0  0  0  0  0  0
   13.5475    1.4746   14.2462 C   0  0  0  0  0  0  0  0  0  0  0  0
   13.8398    2.9339   13.9399 C   0  0  0  0  0  0  0  0  0  0  0  0
   15.2565    2.8821   13.4218 C   0  0  0  0  0  0  0  0  0  0  0  0
   15.9175    1.9318   14.3192 N   0  0  0  0  0  0  0  0  0  0  0  0
   14.9373    0.5905   16.1586 C   0  0  0  0  0  0  0  0  0  0  0  0
   15.3484    1.4126   16.9781 O   0  0  0  0  0  0  0  0  0  0  0  0
   14.4263   -0.6102   16.5839 N   0  0  0  0  0  0  0  0  0  0  0  0
   16.9706   -4.9165   16.4936 H   0  0  0  0  0  0  0  0  0  0  0  0
   18.2869   -3.8161   16.0825 H   0  0  0  0  0  0  0  0  0  0  0  0
   17.0081   -4.1495   14.9004 H   0  0  0  0  0  0  0  0  0  0  0  0
   16.5941   -2.6909   17.5688 H   0  0  0  0  0  0  0  0  0  0  0  0
   16.8010   -1.8908   16.0056 H   0  0  0  0  0  0  0  0  0  0  0  0
   12.3959   -4.4734   16.0861 H   0  0  0  0  0  0  0  0  0  0  0  0
   12.3896   -3.7237   17.6875 H   0  0  0  0  0  0  0  0  0  0  0  0
   12.3006   -1.6495   16.8724 H   0  0  0  0  0  0  0  0  0  0  0  0
   13.4607   -1.2197   13.7602 H   0  0  0  0  0  0  0  0  0  0  0  0
   14.7296   -2.4250   13.7448 H   0  0  0  0  0  0  0  0  0  0  0  0
   16.3469   -0.6712   14.2112 H   0  0  0  0  0  0  0  0  0  0  0  0
   15.3368   -0.2299   12.8478 H   0  0  0  0  0  0  0  0  0  0  0  0
   13.1668    0.9987   13.3345 H   0  0  0  0  0  0  0  0  0  0  0  0
   12.7793    1.3883   15.0217 H   0  0  0  0  0  0  0  0  0  0  0  0
   13.1395    3.3522   13.2112 H   0  0  0  0  0  0  0  0  0  0  0  0
   13.7827    3.5326   14.8572 H   0  0  0  0  0  0  0  0  0  0  0  0
   15.2892    2.5068   12.3925 H   0  0  0  0  0  0  0  0  0  0  0  0
   15.7433    3.8614   13.4444 H   0  0  0  0  0  0  0  0  0  0  0  0
   16.1344    2.4197   15.1982 H   0  0  0  0  0  0  0  0  0  0  0  0
   14.5610   -0.7593   17.5769 H   0  0  0  0  0  0  0  0  0  0  0  0
  1  2  1  0
  2  3  1  0
  3  4  1  0
  4  5  2  0
  4  6  1  0
  6  7  1  0
  7  8  1  0
  8  9  1  0
  8 10  1  0
  8 11  1  0
  7 12  1  0
 12 13  1  0
 13 14  1  0
 14 15  1  0
 15 16  1  0
 16 17  1  0
 17 18  1  0
 18 19  1  0
 15 20  1  0
 20 21  2  0
 20 22  1  0
 12  3  1  0
 19 15  1  0
 22 12  1  0
  1 23  1  0
  1 24  1  0
  1 25  1  0
  2 26  1  0
  2 27  1  0
  6 28  1  0
  6 29  1  0
  7 30  1  0
 13 31  1  0
 13 32  1  0
 14 33  1  0
 14 34  1  0
 16 35  1  0
 16 36  1  0
 17 37  1  0
 17 38  1  0
 18 39  1  0
 18 40  1  0
 19 41  1  0
 22 42  1  0
M  END
>  <Energy>  (21) 
-37.127876982210168

>  <compound_id>  (21) 
3097

>  <target_id>  (21) 
1

>  <reference_id>  (21) 
98

>  <inspiration_ids>  (21) 
[98, 26]

>  <energy_score>  (21) 
-39.65585909719431

>  <distance_score>  (21) 
1.2691053029811696

>  <path>  (21) 
/opt/xchem-fragalysis-2/maxwin/BulkDock/SCRATCH/505734/C3097-P98/C3097-P98.minimised.mol

>  <scratch_subdir>  (21) 
/opt/xchem-fragalysis-2/maxwin/BulkDock/SCRATCH/505734/C3097-P98

>  <fragmenstein_runtime>  (21) 
4.8071205615997314

>  <fragmenstein_outcome>  (21) 
too moved

>  <fragmenstein_mode>  (21) 
expansion

>  <fragmenstein_error>  (21) 


$$$$
C3097-P26
     RDKit          3D

 42 44  0  0  0  0  0  0  0  0999 V2000
   17.1495   -4.0307   16.2545 C   0  0  0  0  0  0  0  0  0  0  0  0
   16.4370   -2.7130   16.5367 C   0  0  0  0  0  0  0  0  0  0  0  0
   14.9918   -2.7975   16.3486 N   0  0  0  0  0  0  0  0  0  0  0  0
   14.2337   -3.6465   17.1393 C   0  0  0  0  0  0  0  0  0  0  0  0
   14.6282   -4.3940   18.0182 O   0  0  0  0  0  0  0  0  0  0  0  0
   12.8147   -3.5114   16.7275 C   0  0  0  0  0  0  0  0  0  0  0  0
   12.7483   -2.1090   16.1434 C   0  0  0  0  0  0  0  0  0  0  0  0
   11.6802   -2.0209   15.0869 C   0  0  0  0  0  0  0  0  0  0  0  0
   11.8410   -2.9261   14.1062 F   0  0  0  0  0  0  0  0  0  0  0  0
   11.6591   -0.7861   14.5515 F   0  0  0  0  0  0  0  0  0  0  0  0
   10.4728   -2.2292   15.6566 F   0  0  0  0  0  0  0  0  0  0  0  0
   14.1922   -1.7222   15.7399 C   0  0  0  0  0  0  0  0  0  0  0  0
   14.4426   -1.6193   14.2158 C   0  0  0  0  0  0  0  0  0  0  0  0
   15.2650   -0.4207   13.7648 C   0  0  0  0  0  0  0  0  0  0  0  0
   14.8659    0.8887   14.4317 C   0  0  0  0  0  0  0  0  0  0  0  0
   13.4781    1.4314   14.0799 C   0  0  0  0  0  0  0  0  0  0  0  0
   13.7262    2.8817   13.6994 C   0  0  0  0  0  0  0  0  0  0  0  0
   15.1082    2.8313   13.0964 C   0  0  0  0  0  0  0  0  0  0  0  0
   15.8393    1.9228   13.9811 N   0  0  0  0  0  0  0  0  0  0  0  0
   14.9947    0.6849   15.9436 C   0  0  0  0  0  0  0  0  0  0  0  0
   15.4487    1.5508   16.6913 O   0  0  0  0  0  0  0  0  0  0  0  0
   14.5366   -0.4927   16.4618 N   0  0  0  0  0  0  0  0  0  0  0  0
   16.8872   -4.8029   16.9821 H   0  0  0  0  0  0  0  0  0  0  0  0
   18.2337   -3.8879   16.3021 H   0  0  0  0  0  0  0  0  0  0  0  0
   16.8958   -4.4050   15.2577 H   0  0  0  0  0  0  0  0  0  0  0  0
   16.6311   -2.3933   17.5665 H   0  0  0  0  0  0  0  0  0  0  0  0
   16.8361   -1.9518   15.8605 H   0  0  0  0  0  0  0  0  0  0  0  0
   12.5727   -4.2969   16.0136 H   0  0  0  0  0  0  0  0  0  0  0  0
   12.1837   -3.6180   17.6026 H   0  0  0  0  0  0  0  0  0  0  0  0
   12.4279   -1.4376   16.9503 H   0  0  0  0  0  0  0  0  0  0  0  0
   13.5239   -1.5696   13.6331 H   0  0  0  0  0  0  0  0  0  0  0  0
   14.9558   -2.5173   13.8558 H   0  0  0  0  0  0  0  0  0  0  0  0
   16.3208   -0.6373   13.9811 H   0  0  0  0  0  0  0  0  0  0  0  0
   15.1981   -0.3351   12.6717 H   0  0  0  0  0  0  0  0  0  0  0  0
   13.0576    0.9046   13.2148 H   0  0  0  0  0  0  0  0  0  0  0  0
   12.7586    1.3750   14.9029 H   0  0  0  0  0  0  0  0  0  0  0  0
   12.9746    3.2597   13.0003 H   0  0  0  0  0  0  0  0  0  0  0  0
   13.7153    3.5159   14.5944 H   0  0  0  0  0  0  0  0  0  0  0  0
   15.0822    2.4196   12.0810 H   0  0  0  0  0  0  0  0  0  0  0  0
   15.5794    3.8175   13.0533 H   0  0  0  0  0  0  0  0  0  0  0  0
   16.1125    2.4498   14.8215 H   0  0  0  0  0  0  0  0  0  0  0  0
   14.7199   -0.5770   17.4546 H   0  0  0  0  0  0  0  0  0  0  0  0
  1  2  1  0
  2  3  1  0
  3  4  1  0
  4  5  2  0
  4  6  1  0
  6  7  1  0
  7  8  1  0
  8  9  1  0
  8 10  1  0
  8 11  1  0
  7 12  1  0
 12 13  1  0
 13 14  1  0
 14 15  1  0
 15 16  1  0
 16 17  1  0
 17 18  1  0
 18 19  1  0
 15 20  1  0
 20 21  2  0
 20 22  1  0
 12  3  1  0
 19 15  1  0
 22 12  1  0
  1 23  1  0
  1 24  1  0
  1 25  1  0
  2 26  1  0
  2 27  1  0
  6 28  1  0
  6 29  1  0
  7 30  1  0
 13 31  1  0
 13 32  1  0
 14 33  1  0
 14 34  1  0
 16 35  1  0
 16 36  1  0
 17 37  1  0
 17 38  1  0
 18 39  1  0
 18 40  1  0
 19 41  1  0
 22 42  1  0
M  END
>  <Energy>  (22) 
-38.903091022702455

>  <compound_id>  (22) 
3097

>  <target_id>  (22) 
1

>  <reference_id>  (22) 
26

>  <inspiration_ids>  (22) 
[98, 26]

>  <energy_score>  (22) 
-41.431073137685686

>  <distance_score>  (22) 
1.0979998192824696

>  <path>  (22) 
/opt/xchem-fragalysis-2/maxwin/BulkDock/SCRATCH/505734/C3097-P26/C3097-P26.minimised.mol

>  <scratch_subdir>  (22) 
/opt/xchem-fragalysis-2/maxwin/BulkDock/SCRATCH/505734/C3097-P26

>  <fragmenstein_runtime>  (22) 
4.3160059452056885

>  <fragmenstein_outcome>  (22) 
too moved

>  <fragmenstein_mode>  (22) 
expansion

>  <fragmenstein_error>  (22) 


$$$$
C3098-P98
     RDKit          3D

 43 44  0  0  0  0  0  0  0  0999 V2000
   14.1529   -5.4418   20.0937 C   0  0  0  0  0  0  0  0  0  0  0  0
   12.9858   -4.7519   19.4193 C   0  0  0  0  0  0  0  0  0  0  0  0
   13.1440   -4.2605   17.9563 C   0  0  0  0  0  0  0  0  0  0  0  0
   11.9518   -4.3334   17.1148 O   0  0  0  0  0  0  0  0  0  0  0  0
   11.7965   -3.3932   16.0407 C   0  0  0  0  0  0  0  0  0  0  0  0
   11.4691   -4.0194   14.8937 F   0  0  0  0  0  0  0  0  0  0  0  0
   10.7158   -2.6099   16.2701 F   0  0  0  0  0  0  0  0  0  0  0  0
   12.9358   -2.4795   15.8606 C   0  0  0  0  0  0  0  0  0  0  0  0
   14.1506   -2.9177   15.7909 N   0  0  0  0  0  0  0  0  0  0  0  0
   15.0057   -1.7800   16.0978 C   0  0  0  0  0  0  0  0  0  0  0  0
   15.8265   -1.5162   14.8566 C   0  0  0  0  0  0  0  0  0  0  0  0
   14.9649   -1.3262   13.5913 C   0  0  0  0  0  0  0  0  0  0  0  0
   15.6892   -1.9451   17.3844 N   0  0  0  0  0  0  0  0  0  0  0  0
   16.2841   -3.1385   17.8124 C   0  0  0  0  0  0  0  0  0  0  0  0
   16.8611   -4.0924   16.9790 C   0  0  0  0  0  0  0  0  0  0  0  0
   17.5613   -5.1860   17.5116 C   0  0  0  0  0  0  0  0  0  0  0  0
   17.7187   -5.3324   18.8892 C   0  0  0  0  0  0  0  0  0  0  0  0
   17.1386   -4.4057   19.7433 C   0  0  0  0  0  0  0  0  0  0  0  0
   16.4042   -3.3549   19.1989 C   0  0  0  0  0  0  0  0  0  0  0  0
   15.6791   -2.5734   20.0628 O   0  0  0  0  0  0  0  0  0  0  0  0
   14.0485   -0.5861   16.2841 C   0  0  0  0  0  0  0  0  0  0  0  0
   14.3302    0.5278   16.7001 O   0  0  0  0  0  0  0  0  0  0  0  0
   12.6934   -1.0110   15.8933 C   0  0  0  0  0  0  0  0  0  0  0  0
   14.6818   -4.7542   20.7530 H   0  0  0  0  0  0  0  0  0  0  0  0
   13.7859   -6.2314   20.7603 H   0  0  0  0  0  0  0  0  0  0  0  0
   14.8354   -5.8994   19.3770 H   0  0  0  0  0  0  0  0  0  0  0  0
   12.1509   -5.4278   19.5242 H   0  0  0  0  0  0  0  0  0  0  0  0
   12.7442   -3.8850   20.0456 H   0  0  0  0  0  0  0  0  0  0  0  0
   13.9204   -4.8393   17.4527 H   0  0  0  0  0  0  0  0  0  0  0  0
   13.4372   -3.2184   18.0731 H   0  0  0  0  0  0  0  0  0  0  0  0
   16.4439   -0.6193   14.9947 H   0  0  0  0  0  0  0  0  0  0  0  0
   16.5259   -2.3336   14.6582 H   0  0  0  0  0  0  0  0  0  0  0  0
   14.3635   -0.4144   13.6408 H   0  0  0  0  0  0  0  0  0  0  0  0
   15.6299   -1.2123   12.7274 H   0  0  0  0  0  0  0  0  0  0  0  0
   14.3147   -2.1768   13.3781 H   0  0  0  0  0  0  0  0  0  0  0  0
   16.3462   -1.1743   17.5321 H   0  0  0  0  0  0  0  0  0  0  0  0
   16.7885   -4.0211   15.9000 H   0  0  0  0  0  0  0  0  0  0  0  0
   18.0016   -5.9186   16.8389 H   0  0  0  0  0  0  0  0  0  0  0  0
   18.2728   -6.1758   19.2917 H   0  0  0  0  0  0  0  0  0  0  0  0
   17.2094   -4.5218   20.8204 H   0  0  0  0  0  0  0  0  0  0  0  0
   15.2153   -1.9388   19.4848 H   0  0  0  0  0  0  0  0  0  0  0  0
   12.4086   -0.6414   14.9084 H   0  0  0  0  0  0  0  0  0  0  0  0
   11.9723   -0.7329   16.6546 H   0  0  0  0  0  0  0  0  0  0  0  0
  1  2  1  0
  2  3  1  0
  3  4  1  0
  4  5  1  0
  5  6  1  0
  5  7  1  0
  5  8  1  0
  8  9  2  0
  9 10  1  0
 10 11  1  0
 11 12  1  0
 10 13  1  0
 13 14  1  0
 14 15  2  0
 15 16  1  0
 16 17  2  0
 17 18  1  0
 18 19  2  0
 19 20  1  0
 10 21  1  0
 21 22  2  0
 21 23  1  0
 23  8  1  0
 19 14  1  0
  1 24  1  0
  1 25  1  0
  1 26  1  0
  2 27  1  0
  2 28  1  0
  3 29  1  0
  3 30  1  0
 11 31  1  0
 11 32  1  0
 12 33  1  0
 12 34  1  0
 12 35  1  0
 13 36  1  0
 15 37  1  0
 16 38  1  0
 17 39  1  0
 18 40  1  0
 20 41  1  0
 23 42  1  0
 23 43  1  0
M  END
>  <Energy>  (23) 
95.468865364653354

>  <compound_id>  (23) 
3098

>  <target_id>  (23) 
1

>  <reference_id>  (23) 
98

>  <inspiration_ids>  (23) 
[98, 27]

>  <energy_score>  (23) 
-20.290537028714226

>  <distance_score>  (23) 
2.2002521610432466

>  <path>  (23) 
/opt/xchem-fragalysis-2/maxwin/BulkDock/SCRATCH/505734/C3098-P98/C3098-P98.minimised.mol

>  <scratch_subdir>  (23) 
/opt/xchem-fragalysis-2/maxwin/BulkDock/SCRATCH/505734/C3098-P98

>  <fragmenstein_runtime>  (23) 
2.4110820293426514

>  <fragmenstein_outcome>  (23) 
too moved

>  <fragmenstein_mode>  (23) 
expansion

>  <fragmenstein_error>  (23) 


$$$$
C3098-P27
     RDKit          3D

 43 44  0  0  0  0  0  0  0  0999 V2000
   13.0514   -4.1970   17.4811 C   0  0  0  0  0  0  0  0  0  0  0  0
   11.9016   -4.4616   16.5614 C   0  0  0  0  0  0  0  0  0  0  0  0
   11.5600   -3.5182   15.4094 C   0  0  0  0  0  0  0  0  0  0  0  0
   10.7979   -2.4194   15.8853 O   0  0  0  0  0  0  0  0  0  0  0  0
   11.2897   -1.1724   15.4857 C   0  0  0  0  0  0  0  0  0  0  0  0
   10.3618   -0.2540   15.8679 F   0  0  0  0  0  0  0  0  0  0  0  0
   11.3766   -1.1159   14.1367 F   0  0  0  0  0  0  0  0  0  0  0  0
   12.6198   -0.8696   16.1102 C   0  0  0  0  0  0  0  0  0  0  0  0
   13.4478   -1.8001   16.4592 N   0  0  0  0  0  0  0  0  0  0  0  0
   14.7171   -1.2457   16.8928 C   0  0  0  0  0  0  0  0  0  0  0  0
   15.6593   -1.2801   15.6883 C   0  0  0  0  0  0  0  0  0  0  0  0
   15.3289   -2.3379   14.6482 C   0  0  0  0  0  0  0  0  0  0  0  0
   15.2038   -1.7745   18.1860 N   0  0  0  0  0  0  0  0  0  0  0  0
   15.7467   -3.0501   18.4161 C   0  0  0  0  0  0  0  0  0  0  0  0
   16.7445   -3.6487   17.6456 C   0  0  0  0  0  0  0  0  0  0  0  0
   17.3096   -4.8856   18.0014 C   0  0  0  0  0  0  0  0  0  0  0  0
   16.9159   -5.5401   19.1646 C   0  0  0  0  0  0  0  0  0  0  0  0
   15.9542   -4.9583   19.9765 C   0  0  0  0  0  0  0  0  0  0  0  0
   15.3950   -3.7374   19.6020 C   0  0  0  0  0  0  0  0  0  0  0  0
   14.4074   -3.2476   20.4149 O   0  0  0  0  0  0  0  0  0  0  0  0
   14.3346    0.2354   17.0616 C   0  0  0  0  0  0  0  0  0  0  0  0
   14.9710    1.0703   17.6833 O   0  0  0  0  0  0  0  0  0  0  0  0
   13.0909    0.5207   16.2838 C   0  0  0  0  0  0  0  0  0  0  0  0
   12.8815   -3.2998   18.0736 H   0  0  0  0  0  0  0  0  0  0  0  0
   13.1643   -4.9994   18.2141 H   0  0  0  0  0  0  0  0  0  0  0  0
   13.9726   -4.1708   16.9010 H   0  0  0  0  0  0  0  0  0  0  0  0
   11.0409   -4.5355   17.1860 H   0  0  0  0  0  0  0  0  0  0  0  0
   12.0781   -5.4712   16.2323 H   0  0  0  0  0  0  0  0  0  0  0  0
   12.4332   -3.2267   14.8265 H   0  0  0  0  0  0  0  0  0  0  0  0
   10.8980   -4.0307   14.7088 H   0  0  0  0  0  0  0  0  0  0  0  0
   16.7041   -1.3490   16.0049 H   0  0  0  0  0  0  0  0  0  0  0  0
   15.6287   -0.3229   15.1469 H   0  0  0  0  0  0  0  0  0  0  0  0
   14.3796   -2.1430   14.1432 H   0  0  0  0  0  0  0  0  0  0  0  0
   16.1024   -2.3405   13.8722 H   0  0  0  0  0  0  0  0  0  0  0  0
   15.3317   -3.3254   15.1097 H   0  0  0  0  0  0  0  0  0  0  0  0
   15.8419   -1.0868   18.6002 H   0  0  0  0  0  0  0  0  0  0  0  0
   17.1402   -3.1814   16.7552 H   0  0  0  0  0  0  0  0  0  0  0  0
   18.0783   -5.3256   17.3703 H   0  0  0  0  0  0  0  0  0  0  0  0
   17.3605   -6.4928   19.4380 H   0  0  0  0  0  0  0  0  0  0  0  0
   15.6294   -5.4447   20.8911 H   0  0  0  0  0  0  0  0  0  0  0  0
   14.1150   -2.4290   19.9700 H   0  0  0  0  0  0  0  0  0  0  0  0
   13.3275    0.9688   15.3175 H   0  0  0  0  0  0  0  0  0  0  0  0
   12.3911    1.1257   16.8542 H   0  0  0  0  0  0  0  0  0  0  0  0
  1  2  1  0
  2  3  1  0
  3  4  1  0
  4  5  1  0
  5  6  1  0
  5  7  1  0
  5  8  1  0
  8  9  2  0
  9 10  1  0
 10 11  1  0
 11 12  1  0
 10 13  1  0
 13 14  1  0
 14 15  2  0
 15 16  1  0
 16 17  2  0
 17 18  1  0
 18 19  2  0
 19 20  1  0
 10 21  1  0
 21 22  2  0
 21 23  1  0
 23  8  1  0
 19 14  1  0
  1 24  1  0
  1 25  1  0
  1 26  1  0
  2 27  1  0
  2 28  1  0
  3 29  1  0
  3 30  1  0
 11 31  1  0
 11 32  1  0
 12 33  1  0
 12 34  1  0
 12 35  1  0
 13 36  1  0
 15 37  1  0
 16 38  1  0
 17 39  1  0
 18 40  1  0
 20 41  1  0
 23 42  1  0
 23 43  1  0
M  END
>  <Energy>  (24) 
92.877471585213655

>  <compound_id>  (24) 
3098

>  <target_id>  (24) 
1

>  <reference_id>  (24) 
27

>  <inspiration_ids>  (24) 
[98, 27]

>  <energy_score>  (24) 
-22.881930808154095

>  <distance_score>  (24) 
2.1845292609064297

>  <path>  (24) 
/opt/xchem-fragalysis-2/maxwin/BulkDock/SCRATCH/505734/C3098-P27/C3098-P27.minimised.mol

>  <scratch_subdir>  (24) 
/opt/xchem-fragalysis-2/maxwin/BulkDock/SCRATCH/505734/C3098-P27

>  <fragmenstein_runtime>  (24) 
2.1410460472106934

>  <fragmenstein_outcome>  (24) 
too moved

>  <fragmenstein_mode>  (24) 
expansion

>  <fragmenstein_error>  (24) 


$$$$
C3099-P98
     RDKit          3D

 43 44  0  0  0  0  0  0  0  0999 V2000
   13.7384   -4.2615   18.9068 C   0  0  0  0  0  0  0  0  0  0  0  0
   13.2718   -4.2271   17.4614 C   0  0  0  0  0  0  0  0  0  0  0  0
   13.7582   -3.0870   16.7270 N   0  0  0  0  0  0  0  0  0  0  0  0
   12.9093   -2.3725   15.9126 N   0  0  0  0  0  0  0  0  0  0  0  0
   13.6688   -1.6225   15.1631 C   0  0  0  0  0  0  0  0  0  0  0  0
   13.1526   -0.6888   14.0853 C   0  0  0  0  0  0  0  0  0  0  0  0
   11.9951   -0.0936   14.5032 F   0  0  0  0  0  0  0  0  0  0  0  0
   12.8211   -1.3584   12.9467 F   0  0  0  0  0  0  0  0  0  0  0  0
   14.0219    0.3870   13.7602 O   0  0  0  0  0  0  0  0  0  0  0  0
   15.0880    0.2170   12.9250 C   0  0  0  0  0  0  0  0  0  0  0  0
   15.4965   -0.8711   12.2563 C   0  0  0  0  0  0  0  0  0  0  0  0
   16.6477   -1.0354   11.4981 N   0  0  0  0  0  0  0  0  0  0  0  0
   17.7114   -0.0324   11.4344 C   0  0  0  0  0  0  0  0  0  0  0  0
   18.7254   -0.3926   10.3238 C   0  0  0  0  0  0  0  0  0  0  0  0
   19.5778   -1.6454   10.5459 N   0  0  0  0  0  0  0  0  0  0  0  0
   20.8033   -1.5366    9.8285 C   0  0  0  0  0  0  0  0  0  0  0  0
   21.8479   -0.8934   10.7174 C   0  0  0  0  0  0  0  0  0  0  0  0
   21.0899   -1.8833    8.7144 O   0  0  0  0  0  0  0  0  0  0  0  0
   18.2800   -2.3294   10.1829 C   0  0  0  0  0  0  0  0  0  0  0  0
   17.1816   -2.3825   11.2609 C   0  0  0  0  0  0  0  0  0  0  0  0
   15.1336   -1.8108   15.4265 C   0  0  0  0  0  0  0  0  0  0  0  0
   15.1079   -2.8869   16.4581 C   0  0  0  0  0  0  0  0  0  0  0  0
   16.0726   -3.4699   16.9183 O   0  0  0  0  0  0  0  0  0  0  0  0
   14.8205   -4.4069   18.9751 H   0  0  0  0  0  0  0  0  0  0  0  0
   13.4988   -3.3317   19.4278 H   0  0  0  0  0  0  0  0  0  0  0  0
   13.2610   -5.0866   19.4427 H   0  0  0  0  0  0  0  0  0  0  0  0
   13.6302   -5.1155   16.9390 H   0  0  0  0  0  0  0  0  0  0  0  0
   12.1838   -4.2318   17.3984 H   0  0  0  0  0  0  0  0  0  0  0  0
   15.6371    1.1515   12.8891 H   0  0  0  0  0  0  0  0  0  0  0  0
   14.9205   -1.7939   12.2861 H   0  0  0  0  0  0  0  0  0  0  0  0
   17.2919    0.9550   11.2100 H   0  0  0  0  0  0  0  0  0  0  0  0
   18.2259    0.0237   12.4017 H   0  0  0  0  0  0  0  0  0  0  0  0
   18.3359   -0.2712    9.2976 H   0  0  0  0  0  0  0  0  0  0  0  0
   19.4562    0.4315   10.3669 H   0  0  0  0  0  0  0  0  0  0  0  0
   22.1430    0.0661   10.2844 H   0  0  0  0  0  0  0  0  0  0  0  0
   21.4749   -0.7223   11.7315 H   0  0  0  0  0  0  0  0  0  0  0  0
   22.7172   -1.5540   10.7790 H   0  0  0  0  0  0  0  0  0  0  0  0
   17.9159   -2.1288    9.1615 H   0  0  0  0  0  0  0  0  0  0  0  0
   18.6105   -3.3749   10.0767 H   0  0  0  0  0  0  0  0  0  0  0  0
   17.5919   -2.7849   12.1952 H   0  0  0  0  0  0  0  0  0  0  0  0
   16.3813   -3.0491   10.9228 H   0  0  0  0  0  0  0  0  0  0  0  0
   15.5823   -0.8990   15.8233 H   0  0  0  0  0  0  0  0  0  0  0  0
   15.6532   -2.1867   14.5468 H   0  0  0  0  0  0  0  0  0  0  0  0
  1  2  1  0
  2  3  1  0
  3  4  1  0
  4  5  2  0
  5  6  1  0
  6  7  1  0
  6  8  1  0
  6  9  1  0
  9 10  1  0
 10 11  2  3
 11 12  1  0
 12 13  1  0
 13 14  1  0
 14 15  1  0
 15 16  1  0
 16 17  1  0
 16 18  2  0
 15 19  1  0
 19 20  1  0
  5 21  1  0
 21 22  1  0
 22 23  2  0
 22  3  1  0
 20 12  1  0
  1 24  1  0
  1 25  1  0
  1 26  1  0
  2 27  1  0
  2 28  1  0
 10 29  1  0
 11 30  1  0
 13 31  1  0
 13 32  1  0
 14 33  1  0
 14 34  1  0
 17 35  1  0
 17 36  1  0
 17 37  1  0
 19 38  1  0
 19 39  1  0
 20 40  1  0
 20 41  1  0
 21 42  1  0
 21 43  1  0
M  END
>  <Energy>  (25) 
185.19398493700604

>  <compound_id>  (25) 
3099

>  <target_id>  (25) 
1

>  <reference_id>  (25) 
98

>  <inspiration_ids>  (25) 
[98, 29]

>  <energy_score>  (25) 
19.408035225452238

>  <distance_score>  (25) 
1.923261402144702

>  <path>  (25) 
/opt/xchem-fragalysis-2/maxwin/BulkDock/SCRATCH/505734/C3099-P98/C3099-P98.minimised.mol

>  <scratch_subdir>  (25) 
/opt/xchem-fragalysis-2/maxwin/BulkDock/SCRATCH/505734/C3099-P98

>  <fragmenstein_runtime>  (25) 
13.923736333847046

>  <fragmenstein_outcome>  (25) 
too moved

>  <fragmenstein_mode>  (25) 
expansion

>  <fragmenstein_error>  (25) 


$$$$
C3099-P29
     RDKit          3D

 43 44  0  0  0  0  0  0  0  0999 V2000
   14.3711   -5.2711   18.4115 C   0  0  0  0  0  0  0  0  0  0  0  0
   13.4226   -4.1739   17.9621 C   0  0  0  0  0  0  0  0  0  0  0  0
   13.8689   -3.3661   16.8649 N   0  0  0  0  0  0  0  0  0  0  0  0
   12.9772   -2.6261   16.1074 N   0  0  0  0  0  0  0  0  0  0  0  0
   13.7170   -1.8586   15.3536 C   0  0  0  0  0  0  0  0  0  0  0  0
   13.2269   -0.7583   14.4377 C   0  0  0  0  0  0  0  0  0  0  0  0
   11.8662   -0.7405   14.4092 F   0  0  0  0  0  0  0  0  0  0  0  0
   13.6198    0.4495   14.9398 F   0  0  0  0  0  0  0  0  0  0  0  0
   13.6330   -0.7909   13.0861 O   0  0  0  0  0  0  0  0  0  0  0  0
   14.9811   -0.7330   12.8790 C   0  0  0  0  0  0  0  0  0  0  0  0
   15.5464   -1.4746   11.9270 C   0  0  0  0  0  0  0  0  0  0  0  0
   16.8880   -1.6447   11.6273 N   0  0  0  0  0  0  0  0  0  0  0  0
   17.2465   -2.3856   10.4184 C   0  0  0  0  0  0  0  0  0  0  0  0
   18.7824   -2.3789   10.2306 C   0  0  0  0  0  0  0  0  0  0  0  0
   19.6463   -3.2069   11.1845 N   0  0  0  0  0  0  0  0  0  0  0  0
   19.2018   -4.6631   11.2071 C   0  0  0  0  0  0  0  0  0  0  0  0
   19.9791   -5.3795   10.1237 C   0  0  0  0  0  0  0  0  0  0  0  0
   18.4146   -5.2092   11.8929 O   0  0  0  0  0  0  0  0  0  0  0  0
   19.2869   -2.0460   12.1034 C   0  0  0  0  0  0  0  0  0  0  0  0
   17.8564   -1.9420   12.6922 C   0  0  0  0  0  0  0  0  0  0  0  0
   15.1860   -2.0523   15.5636 C   0  0  0  0  0  0  0  0  0  0  0  0
   15.1972   -3.0253   16.6756 C   0  0  0  0  0  0  0  0  0  0  0  0
   16.1827   -3.4157   17.2674 O   0  0  0  0  0  0  0  0  0  0  0  0
   13.9048   -5.8431   19.2150 H   0  0  0  0  0  0  0  0  0  0  0  0
   15.2929   -4.8715   18.8424 H   0  0  0  0  0  0  0  0  0  0  0  0
   14.6359   -5.9349   17.5838 H   0  0  0  0  0  0  0  0  0  0  0  0
   13.2713   -3.5266   18.8214 H   0  0  0  0  0  0  0  0  0  0  0  0
   12.4715   -4.6030   17.6573 H   0  0  0  0  0  0  0  0  0  0  0  0
   15.5315   -0.0749   13.5368 H   0  0  0  0  0  0  0  0  0  0  0  0
   14.8914   -2.0503   11.2707 H   0  0  0  0  0  0  0  0  0  0  0  0
   16.8736   -3.4126   10.4882 H   0  0  0  0  0  0  0  0  0  0  0  0
   16.7832   -1.9098    9.5464 H   0  0  0  0  0  0  0  0  0  0  0  0
   18.9251   -2.9086    9.2749 H   0  0  0  0  0  0  0  0  0  0  0  0
   19.1952   -1.3843    9.9867 H   0  0  0  0  0  0  0  0  0  0  0  0
   19.2983   -5.6370    9.3083 H   0  0  0  0  0  0  0  0  0  0  0  0
   20.7933   -4.7661    9.7279 H   0  0  0  0  0  0  0  0  0  0  0  0
   20.4128   -6.2915   10.5434 H   0  0  0  0  0  0  0  0  0  0  0  0
   19.9010   -2.2923   12.9841 H   0  0  0  0  0  0  0  0  0  0  0  0
   19.7182   -1.0765   11.8004 H   0  0  0  0  0  0  0  0  0  0  0  0
   17.8426   -1.1474   13.4473 H   0  0  0  0  0  0  0  0  0  0  0  0
   17.5911   -2.8838   13.1864 H   0  0  0  0  0  0  0  0  0  0  0  0
   15.6634   -1.1181   15.8645 H   0  0  0  0  0  0  0  0  0  0  0  0
   15.6593   -2.5060   14.6944 H   0  0  0  0  0  0  0  0  0  0  0  0
  1  2  1  0
  2  3  1  0
  3  4  1  0
  4  5  2  0
  5  6  1  0
  6  7  1  0
  6  8  1  0
  6  9  1  0
  9 10  1  0
 10 11  2  3
 11 12  1  0
 12 13  1  0
 13 14  1  0
 14 15  1  0
 15 16  1  0
 16 17  1  0
 16 18  2  0
 15 19  1  0
 19 20  1  0
  5 21  1  0
 21 22  1  0
 22 23  2  0
 22  3  1  0
 20 12  1  0
  1 24  1  0
  1 25  1  0
  1 26  1  0
  2 27  1  0
  2 28  1  0
 10 29  1  0
 11 30  1  0
 13 31  1  0
 13 32  1  0
 14 33  1  0
 14 34  1  0
 17 35  1  0
 17 36  1  0
 17 37  1  0
 19 38  1  0
 19 39  1  0
 20 40  1  0
 20 41  1  0
 21 42  1  0
 21 43  1  0
M  END
>  <Energy>  (26) 
204.94746482139516

>  <compound_id>  (26) 
3099

>  <target_id>  (26) 
1

>  <reference_id>  (26) 
29

>  <inspiration_ids>  (26) 
[98, 29]

>  <energy_score>  (26) 
46.48286207096385

>  <distance_score>  (26) 
1.827088323500233

>  <path>  (26) 
/opt/xchem-fragalysis-2/maxwin/BulkDock/SCRATCH/505734/C3099-P29/C3099-P29.minimised.mol

>  <scratch_subdir>  (26) 
/opt/xchem-fragalysis-2/maxwin/BulkDock/SCRATCH/505734/C3099-P29

>  <fragmenstein_runtime>  (26) 
13.130045175552368

>  <fragmenstein_outcome>  (26) 
too moved

>  <fragmenstein_mode>  (26) 
expansion

>  <fragmenstein_error>  (26) 


$$$$
C3100-P98
     RDKit          3D

 36 37  0  0  0  0  0  0  0  0999 V2000
   15.1504   -3.6321   18.1024 C   0  0  0  0  0  0  0  0  0  0  0  0
   15.2958   -3.0968   16.6823 C   0  0  0  0  0  0  0  0  0  0  0  0
   14.3264   -2.0503   16.3504 N   0  0  0  0  0  0  0  0  0  0  0  0
   13.0050   -2.2579   16.7836 C   0  0  0  0  0  0  0  0  0  0  0  0
   12.2918   -1.3050   17.0865 O   0  0  0  0  0  0  0  0  0  0  0  0
   12.4595   -3.3624   15.9681 C   0  0  0  0  0  0  0  0  0  0  0  0
   12.8804   -2.5347   14.7782 C   0  0  0  0  0  0  0  0  0  0  0  0
   11.7669   -2.1972   13.9041 C   0  0  0  0  0  0  0  0  0  0  0  0
   11.4348   -3.2810   13.1951 F   0  0  0  0  0  0  0  0  0  0  0  0
   10.6984   -1.8371   14.6604 F   0  0  0  0  0  0  0  0  0  0  0  0
   12.0436   -1.2045   13.0496 F   0  0  0  0  0  0  0  0  0  0  0  0
   14.0550   -1.8887   14.9865 C   0  0  0  0  0  0  0  0  0  0  0  0
   14.5667   -0.6437   14.3089 C   0  0  0  0  0  0  0  0  0  0  0  0
   15.2196   -0.9256   13.0154 C   0  0  0  0  0  0  0  0  0  0  0  0
   14.8425   -0.3390   11.8723 N   0  0  0  0  0  0  0  0  0  0  0  0
   15.7146   -0.8868   10.9331 O   0  0  0  0  0  0  0  0  0  0  0  0
   16.5457   -1.7236   11.6207 C   0  0  0  0  0  0  0  0  0  0  0  0
   17.5866   -2.4569   10.8391 C   0  0  0  0  0  0  0  0  0  0  0  0
   18.2346   -1.5730    9.7773 C   0  0  0  0  0  0  0  0  0  0  0  0
   18.6465   -2.9867   11.7136 N   0  0  0  0  0  0  0  0  0  0  0  0
   16.2711   -1.7933   12.9052 N   0  0  0  0  0  0  0  0  0  0  0  0
   14.2063   -4.1669   18.2457 H   0  0  0  0  0  0  0  0  0  0  0  0
   15.9631   -4.3313   18.3235 H   0  0  0  0  0  0  0  0  0  0  0  0
   15.1923   -2.8177   18.8332 H   0  0  0  0  0  0  0  0  0  0  0  0
   16.2903   -2.6522   16.5592 H   0  0  0  0  0  0  0  0  0  0  0  0
   15.2235   -3.9351   15.9794 H   0  0  0  0  0  0  0  0  0  0  0  0
   12.9841   -4.3074   16.0941 H   0  0  0  0  0  0  0  0  0  0  0  0
   11.3887   -3.4822   16.1221 H   0  0  0  0  0  0  0  0  0  0  0  0
   13.7451    0.0716   14.1804 H   0  0  0  0  0  0  0  0  0  0  0  0
   15.2933   -0.1409   14.9602 H   0  0  0  0  0  0  0  0  0  0  0  0
   17.1004   -3.3084   10.3560 H   0  0  0  0  0  0  0  0  0  0  0  0
   18.9908   -2.1287    9.2111 H   0  0  0  0  0  0  0  0  0  0  0  0
   18.7209   -0.6970   10.2231 H   0  0  0  0  0  0  0  0  0  0  0  0
   17.4939   -1.2071    9.0577 H   0  0  0  0  0  0  0  0  0  0  0  0
   19.1676   -3.7055   11.2174 H   0  0  0  0  0  0  0  0  0  0  0  0
   18.1930   -3.4394   12.5110 H   0  0  0  0  0  0  0  0  0  0  0  0
  1  2  1  0
  2  3  1  0
  3  4  1  0
  4  5  2  0
  4  6  1  0
  6  7  1  0
  7  8  1  0
  8  9  1  0
  8 10  1  0
  8 11  1  0
  7 12  2  0
 12 13  1  0
 13 14  1  0
 14 15  2  0
 15 16  1  0
 16 17  1  0
 17 18  1  0
 18 19  1  0
 18 20  1  0
 17 21  2  0
 12  3  1  0
 21 14  1  0
  1 22  1  0
  1 23  1  0
  1 24  1  0
  2 25  1  0
  2 26  1  0
  6 27  1  0
  6 28  1  0
 13 29  1  0
 13 30  1  0
 18 31  1  0
 19 32  1  0
 19 33  1  0
 19 34  1  0
 20 35  1  0
 20 36  1  0
M  END
>  <Energy>  (27) 
124.16488754990382

>  <compound_id>  (27) 
3100

>  <target_id>  (27) 
1

>  <reference_id>  (27) 
98

>  <inspiration_ids>  (27) 
[98, 31]

>  <energy_score>  (27) 
34.42931460703963

>  <distance_score>  (27) 
1.2892570278298838

>  <path>  (27) 
/opt/xchem-fragalysis-2/maxwin/BulkDock/SCRATCH/505734/C3100-P98/C3100-P98.minimised.mol

>  <scratch_subdir>  (27) 
/opt/xchem-fragalysis-2/maxwin/BulkDock/SCRATCH/505734/C3100-P98

>  <fragmenstein_runtime>  (27) 
2.7050905227661133

>  <fragmenstein_outcome>  (27) 
too moved

>  <fragmenstein_mode>  (27) 
expansion

>  <fragmenstein_error>  (27) 


$$$$
C3100-P31
     RDKit          3D

 36 37  0  0  0  0  0  0  0  0999 V2000
   15.5888   -3.3005   17.1166 C   0  0  0  0  0  0  0  0  0  0  0  0
   14.2871   -2.7208   17.6373 C   0  0  0  0  0  0  0  0  0  0  0  0
   13.4421   -2.0336   16.6685 N   0  0  0  0  0  0  0  0  0  0  0  0
   12.1008   -2.5063   16.4819 C   0  0  0  0  0  0  0  0  0  0  0  0
   11.0693   -1.8339   16.3741 O   0  0  0  0  0  0  0  0  0  0  0  0
   12.2254   -3.6113   15.5749 C   0  0  0  0  0  0  0  0  0  0  0  0
   12.9613   -2.6295   14.6975 C   0  0  0  0  0  0  0  0  0  0  0  0
   12.2788   -2.2132   13.5024 C   0  0  0  0  0  0  0  0  0  0  0  0
   11.3446   -3.1124   13.1869 F   0  0  0  0  0  0  0  0  0  0  0  0
   13.1434   -2.1307   12.4979 F   0  0  0  0  0  0  0  0  0  0  0  0
   11.6941   -1.0146   13.6491 F   0  0  0  0  0  0  0  0  0  0  0  0
   13.8653   -1.8917   15.3549 C   0  0  0  0  0  0  0  0  0  0  0  0
   14.6847   -0.7032   14.8987 C   0  0  0  0  0  0  0  0  0  0  0  0
   15.2690   -0.8166   13.5352 C   0  0  0  0  0  0  0  0  0  0  0  0
   14.9420    0.0019   12.5231 N   0  0  0  0  0  0  0  0  0  0  0  0
   15.6923   -0.5003   11.4557 O   0  0  0  0  0  0  0  0  0  0  0  0
   16.4302   -1.5358   11.9558 C   0  0  0  0  0  0  0  0  0  0  0  0
   17.3177   -2.2883   11.0156 C   0  0  0  0  0  0  0  0  0  0  0  0
   17.8497   -1.4243    9.8770 C   0  0  0  0  0  0  0  0  0  0  0  0
   18.4667   -2.8896   11.7178 N   0  0  0  0  0  0  0  0  0  0  0  0
   16.2025   -1.7704   13.2302 N   0  0  0  0  0  0  0  0  0  0  0  0
   16.1607   -3.7480   17.9355 H   0  0  0  0  0  0  0  0  0  0  0  0
   15.4199   -4.0617   16.3490 H   0  0  0  0  0  0  0  0  0  0  0  0
   16.2280   -2.5251   16.6830 H   0  0  0  0  0  0  0  0  0  0  0  0
   14.5257   -1.9924   18.4190 H   0  0  0  0  0  0  0  0  0  0  0  0
   13.6969   -3.5039   18.1245 H   0  0  0  0  0  0  0  0  0  0  0  0
   12.8111   -4.4051   16.0400 H   0  0  0  0  0  0  0  0  0  0  0  0
   11.2322   -3.9293   15.2575 H   0  0  0  0  0  0  0  0  0  0  0  0
   14.0755    0.2056   14.9698 H   0  0  0  0  0  0  0  0  0  0  0  0
   15.5431   -0.5855   15.5683 H   0  0  0  0  0  0  0  0  0  0  0  0
   16.7189   -3.1029   10.6029 H   0  0  0  0  0  0  0  0  0  0  0  0
   18.4854   -2.0091    9.2023 H   0  0  0  0  0  0  0  0  0  0  0  0
   18.4396   -0.5799   10.2527 H   0  0  0  0  0  0  0  0  0  0  0  0
   17.0307   -1.0129    9.2764 H   0  0  0  0  0  0  0  0  0  0  0  0
   18.8506   -3.6357   11.1413 H   0  0  0  0  0  0  0  0  0  0  0  0
   18.1022   -3.3320   12.5663 H   0  0  0  0  0  0  0  0  0  0  0  0
  1  2  1  0
  2  3  1  0
  3  4  1  0
  4  5  2  0
  4  6  1  0
  6  7  1  0
  7  8  1  0
  8  9  1  0
  8 10  1  0
  8 11  1  0
  7 12  2  0
 12 13  1  0
 13 14  1  0
 14 15  2  0
 15 16  1  0
 16 17  1  0
 17 18  1  0
 18 19  1  0
 18 20  1  0
 17 21  2  0
 12  3  1  0
 21 14  1  0
  1 22  1  0
  1 23  1  0
  1 24  1  0
  2 25  1  0
  2 26  1  0
  6 27  1  0
  6 28  1  0
 13 29  1  0
 13 30  1  0
 18 31  1  0
 19 32  1  0
 19 33  1  0
 19 34  1  0
 20 35  1  0
 20 36  1  0
M  END
>  <Energy>  (28) 
135.17412637365234

>  <compound_id>  (28) 
3100

>  <target_id>  (28) 
1

>  <reference_id>  (28) 
31

>  <inspiration_ids>  (28) 
[98, 31]

>  <energy_score>  (28) 
45.43855343078698

>  <distance_score>  (28) 
1.4661046426038424

>  <path>  (28) 
/opt/xchem-fragalysis-2/maxwin/BulkDock/SCRATCH/505734/C3100-P31/C3100-P31.minimised.mol

>  <scratch_subdir>  (28) 
/opt/xchem-fragalysis-2/maxwin/BulkDock/SCRATCH/505734/C3100-P31

>  <fragmenstein_runtime>  (28) 
2.6606028079986572

>  <fragmenstein_outcome>  (28) 
too moved

>  <fragmenstein_mode>  (28) 
expansion

>  <fragmenstein_error>  (28) 


$$$$
C3101-P98
     RDKit          3D

 41 43  0  0  0  0  0  0  0  0999 V2000
   17.3256   -4.7287   16.9256 C   0  0  0  0  0  0  0  0  0  0  0  0
   16.6997   -3.4171   16.4709 C   0  0  0  0  0  0  0  0  0  0  0  0
   15.2916   -3.5740   16.0954 N   0  0  0  0  0  0  0  0  0  0  0  0
   14.8446   -2.4017   15.3646 N   0  0  0  0  0  0  0  0  0  0  0  0
   13.5064   -2.0445   15.8735 C   0  0  0  0  0  0  0  0  0  0  0  0
   13.0734   -3.2611   16.6833 C   0  0  0  0  0  0  0  0  0  0  0  0
   14.3647   -3.8441   17.1861 C   0  0  0  0  0  0  0  0  0  0  0  0
   14.2651   -5.2268   17.3295 O   0  0  0  0  0  0  0  0  0  0  0  0
   14.7170   -3.2874   18.4262 O   0  0  0  0  0  0  0  0  0  0  0  0
   13.6610   -0.7140   16.6808 C   0  0  0  0  0  0  0  0  0  0  0  0
   14.9075   -0.5580   17.4309 N   0  0  0  0  0  0  0  0  0  0  0  0
   14.8505    0.3959   18.5130 C   0  0  0  0  0  0  0  0  0  0  0  0
   13.5277    0.4032   15.6328 C   0  0  0  0  0  0  0  0  0  0  0  0
   12.7668   -0.2087   14.4626 C   0  0  0  0  0  0  0  0  0  0  0  0
   13.6094   -0.4224   13.2046 C   0  0  0  0  0  0  0  0  0  0  0  0
   13.4645   -1.8056   12.8188 O   0  0  0  0  0  0  0  0  0  0  0  0
   12.3524   -2.3192   13.5656 C   0  0  0  0  0  0  0  0  0  0  0  0
   12.4031   -1.6162   14.8867 C   0  0  0  0  0  0  0  0  0  0  0  0
   11.1973   -1.6250   15.5155 F   0  0  0  0  0  0  0  0  0  0  0  0
   17.1963   -5.5126   16.1716 H   0  0  0  0  0  0  0  0  0  0  0  0
   18.4008   -4.5937   17.0834 H   0  0  0  0  0  0  0  0  0  0  0  0
   16.8967   -5.0791   17.8694 H   0  0  0  0  0  0  0  0  0  0  0  0
   16.8562   -2.6493   17.2359 H   0  0  0  0  0  0  0  0  0  0  0  0
   17.2668   -3.0899   15.5888 H   0  0  0  0  0  0  0  0  0  0  0  0
   14.8449   -2.5522   14.3498 H   0  0  0  0  0  0  0  0  0  0  0  0
   12.5402   -3.9826   16.0533 H   0  0  0  0  0  0  0  0  0  0  0  0
   12.4134   -2.9901   17.5015 H   0  0  0  0  0  0  0  0  0  0  0  0
   14.7891   -5.4759   16.5418 H   0  0  0  0  0  0  0  0  0  0  0  0
   14.0352   -3.6241   19.0340 H   0  0  0  0  0  0  0  0  0  0  0  0
   12.8121   -0.6490   17.3546 H   0  0  0  0  0  0  0  0  0  0  0  0
   15.1770   -1.4739   17.8083 H   0  0  0  0  0  0  0  0  0  0  0  0
   15.8389    0.4871   18.9739 H   0  0  0  0  0  0  0  0  0  0  0  0
   14.5624    1.3909   18.1598 H   0  0  0  0  0  0  0  0  0  0  0  0
   14.1507    0.0796   19.2918 H   0  0  0  0  0  0  0  0  0  0  0  0
   12.9740    1.2483   16.0593 H   0  0  0  0  0  0  0  0  0  0  0  0
   14.5002    0.7973   15.3147 H   0  0  0  0  0  0  0  0  0  0  0  0
   11.8789    0.3899   14.2277 H   0  0  0  0  0  0  0  0  0  0  0  0
   14.6754   -0.2165   13.3383 H   0  0  0  0  0  0  0  0  0  0  0  0
   13.2471    0.2028   12.3820 H   0  0  0  0  0  0  0  0  0  0  0  0
   11.4657   -2.0431   13.0207 H   0  0  0  0  0  0  0  0  0  0  0  0
   12.3558   -3.4011   13.6270 H   0  0  0  0  0  0  0  0  0  0  0  0
  1  2  1  0
  2  3  1  0
  3  4  1  0
  4  5  1  0
  5  6  1  0
  6  7  1  0
  7  8  1  0
  7  9  1  0
  5 10  1  0
 10 11  1  0
 11 12  1  0
 10 13  1  0
 13 14  1  0
 14 15  1  0
 15 16  1  0
 16 17  1  0
 17 18  1  0
 18 19  1  0
  7  3  1  0
 18 14  1  0
 18  5  1  0
  1 20  1  0
  1 21  1  0
  1 22  1  0
  2 23  1  0
  2 24  1  0
  4 25  1  0
  6 26  1  0
  6 27  1  0
  8 28  1  0
  9 29  1  0
 10 30  1  0
 11 31  1  0
 12 32  1  0
 12 33  1  0
 12 34  1  0
 13 35  1  0
 13 36  1  0
 14 37  1  0
 15 38  1  0
 15 39  1  0
 17 40  1  0
 17 41  1  0
M  END
>  <Energy>  (29) 
30.761698066988831

>  <compound_id>  (29) 
3101

>  <target_id>  (29) 
1

>  <reference_id>  (29) 
98

>  <inspiration_ids>  (29) 
[98, 36]

>  <energy_score>  (29) 
-58.25295224845132

>  <distance_score>  (29) 
0.9928170168996518

>  <path>  (29) 
/opt/xchem-fragalysis-2/maxwin/BulkDock/SCRATCH/505734/C3101-P98/C3101-P98.minimised.mol

>  <scratch_subdir>  (29) 
/opt/xchem-fragalysis-2/maxwin/BulkDock/SCRATCH/505734/C3101-P98

>  <fragmenstein_runtime>  (29) 
2.7676095962524414

>  <fragmenstein_outcome>  (29) 
acceptable

>  <fragmenstein_mode>  (29) 
expansion

>  <fragmenstein_error>  (29) 


$$$$
C3101-P36
     RDKit          3D

 41 43  0  0  0  0  0  0  0  0999 V2000
   17.4831   -4.2877   15.8153 C   0  0  0  0  0  0  0  0  0  0  0  0
   16.6167   -3.6626   16.8957 C   0  0  0  0  0  0  0  0  0  0  0  0
   15.2090   -3.7563   16.5090 N   0  0  0  0  0  0  0  0  0  0  0  0
   14.8338   -2.6027   15.6630 N   0  0  0  0  0  0  0  0  0  0  0  0
   13.5110   -2.1295   16.1322 C   0  0  0  0  0  0  0  0  0  0  0  0
   13.0254   -3.2941   16.9987 C   0  0  0  0  0  0  0  0  0  0  0  0
   14.2823   -3.8307   17.6267 C   0  0  0  0  0  0  0  0  0  0  0  0
   14.1618   -5.1387   18.1050 O   0  0  0  0  0  0  0  0  0  0  0  0
   14.6310   -3.0646   18.7538 O   0  0  0  0  0  0  0  0  0  0  0  0
   13.7445   -0.7563   16.8719 C   0  0  0  0  0  0  0  0  0  0  0  0
   15.0271   -0.5835   17.5560 N   0  0  0  0  0  0  0  0  0  0  0  0
   15.0041    0.4095   18.6066 C   0  0  0  0  0  0  0  0  0  0  0  0
   13.6120    0.3304   15.7912 C   0  0  0  0  0  0  0  0  0  0  0  0
   12.8365   -0.3075   14.6564 C   0  0  0  0  0  0  0  0  0  0  0  0
   13.6757   -0.6392   13.4267 C   0  0  0  0  0  0  0  0  0  0  0  0
   13.3514   -1.9924   13.0523 O   0  0  0  0  0  0  0  0  0  0  0  0
   12.2368   -2.3897   13.8619 C   0  0  0  0  0  0  0  0  0  0  0  0
   12.4051   -1.6688   15.1558 C   0  0  0  0  0  0  0  0  0  0  0  0
   11.2192   -1.5715   15.8172 F   0  0  0  0  0  0  0  0  0  0  0  0
   17.3956   -3.7481   14.8663 H   0  0  0  0  0  0  0  0  0  0  0  0
   18.5356   -4.2644   16.1164 H   0  0  0  0  0  0  0  0  0  0  0  0
   17.2081   -5.3339   15.6414 H   0  0  0  0  0  0  0  0  0  0  0  0
   16.8093   -4.2277   17.8156 H   0  0  0  0  0  0  0  0  0  0  0  0
   16.9403   -2.6335   17.0876 H   0  0  0  0  0  0  0  0  0  0  0  0
   14.8250   -2.8497   14.6708 H   0  0  0  0  0  0  0  0  0  0  0  0
   12.5318   -4.0662   16.3941 H   0  0  0  0  0  0  0  0  0  0  0  0
   12.3207   -2.9581   17.7483 H   0  0  0  0  0  0  0  0  0  0  0  0
   15.0798   -5.3239   18.3672 H   0  0  0  0  0  0  0  0  0  0  0  0
   13.8737   -3.1691   19.3575 H   0  0  0  0  0  0  0  0  0  0  0  0
   12.9289   -0.6270   17.5806 H   0  0  0  0  0  0  0  0  0  0  0  0
   15.2884   -1.4877   17.9655 H   0  0  0  0  0  0  0  0  0  0  0  0
   16.0022    0.5003   19.0464 H   0  0  0  0  0  0  0  0  0  0  0  0
   14.7250    1.3963   18.2245 H   0  0  0  0  0  0  0  0  0  0  0  0
   14.3128    0.1305   19.4080 H   0  0  0  0  0  0  0  0  0  0  0  0
   13.0687    1.1912   16.1999 H   0  0  0  0  0  0  0  0  0  0  0  0
   14.5815    0.7100   15.4465 H   0  0  0  0  0  0  0  0  0  0  0  0
   11.9781    0.3143   14.3755 H   0  0  0  0  0  0  0  0  0  0  0  0
   14.7554   -0.5840   13.5951 H   0  0  0  0  0  0  0  0  0  0  0  0
   13.4328    0.0244   12.5908 H   0  0  0  0  0  0  0  0  0  0  0  0
   11.3449   -2.0407   13.3641 H   0  0  0  0  0  0  0  0  0  0  0  0
   12.1345   -3.4624   13.9631 H   0  0  0  0  0  0  0  0  0  0  0  0
  1  2  1  0
  2  3  1  0
  3  4  1  0
  4  5  1  0
  5  6  1  0
  6  7  1  0
  7  8  1  0
  7  9  1  0
  5 10  1  0
 10 11  1  0
 11 12  1  0
 10 13  1  0
 13 14  1  0
 14 15  1  0
 15 16  1  0
 16 17  1  0
 17 18  1  0
 18 19  1  0
  7  3  1  0
 18 14  1  0
 18  5  1  0
  1 20  1  0
  1 21  1  0
  1 22  1  0
  2 23  1  0
  2 24  1  0
  4 25  1  0
  6 26  1  0
  6 27  1  0
  8 28  1  0
  9 29  1  0
 10 30  1  0
 11 31  1  0
 12 32  1  0
 12 33  1  0
 12 34  1  0
 13 35  1  0
 13 36  1  0
 14 37  1  0
 15 38  1  0
 15 39  1  0
 17 40  1  0
 17 41  1  0
M  END
>  <Energy>  (30) 
33.54735553248986

>  <compound_id>  (30) 
3101

>  <target_id>  (30) 
1

>  <reference_id>  (30) 
36

>  <inspiration_ids>  (30) 
[98, 36]

>  <energy_score>  (30) 
-55.46729478295066

>  <distance_score>  (30) 
0.9525528840485826

>  <path>  (30) 
/opt/xchem-fragalysis-2/maxwin/BulkDock/SCRATCH/505734/C3101-P36/C3101-P36.minimised.mol

>  <scratch_subdir>  (30) 
/opt/xchem-fragalysis-2/maxwin/BulkDock/SCRATCH/505734/C3101-P36

>  <fragmenstein_runtime>  (30) 
2.4325549602508545

>  <fragmenstein_outcome>  (30) 
acceptable

>  <fragmenstein_mode>  (30) 
expansion

>  <fragmenstein_error>  (30) 


$$$$
C3103-P98
     RDKit          3D

 46 47  0  0  0  0  0  0  0  0999 V2000
   16.2041    3.5941   19.3202 C   0  0  0  0  0  0  0  0  0  0  0  0
   15.6070    4.7197   18.5024 C   0  0  0  0  0  0  0  0  0  0  0  0
   16.3161    4.9709   17.1732 C   0  0  0  0  0  0  0  0  0  0  0  0
   16.2610    3.7850   16.2174 C   0  0  0  0  0  0  0  0  0  0  0  0
   17.2128    3.1830   15.9140 O   0  0  0  0  0  0  0  0  0  0  0  0
   14.7778    3.5846   15.8192 N   0  0  0  0  0  0  0  0  0  0  0  0
   14.1478    2.5426   15.0399 C   0  0  0  0  0  0  0  0  0  0  0  0
   14.4745    1.1389   15.6105 C   0  0  0  0  0  0  0  0  0  0  0  0
   14.0478    0.9636   16.9978 N   0  0  0  0  0  0  0  0  0  0  0  0
   14.2801   -0.4696   17.1726 C   0  0  0  0  0  0  0  0  0  0  0  0
   13.7661   -1.0823   15.8407 C   0  0  0  0  0  0  0  0  0  0  0  0
   13.8353    0.0348   14.9076 N   0  0  0  0  0  0  0  0  0  0  0  0
   12.4018   -1.7156   16.0424 C   0  0  0  0  0  0  0  0  0  0  0  0
   11.6075   -1.9148   14.7817 C   0  0  0  0  0  0  0  0  0  0  0  0
   10.3833   -2.3715   15.1405 F   0  0  0  0  0  0  0  0  0  0  0  0
   11.4342   -0.7149   14.1830 F   0  0  0  0  0  0  0  0  0  0  0  0
   12.1412   -2.7727   13.9035 F   0  0  0  0  0  0  0  0  0  0  0  0
   12.7349   -3.0660   16.6729 C   0  0  0  0  0  0  0  0  0  0  0  0
   14.1408   -3.3046   16.2093 C   0  0  0  0  0  0  0  0  0  0  0  0
   14.8081   -4.2632   16.5427 O   0  0  0  0  0  0  0  0  0  0  0  0
   14.5580   -2.2100   15.4488 N   0  0  0  0  0  0  0  0  0  0  0  0
   15.9263   -2.1240   14.9392 C   0  0  0  0  0  0  0  0  0  0  0  0
   15.9898   -1.8086   13.4529 C   0  0  0  0  0  0  0  0  0  0  0  0
   15.6837    3.5042   20.2791 H   0  0  0  0  0  0  0  0  0  0  0  0
   16.1186    2.6341   18.8022 H   0  0  0  0  0  0  0  0  0  0  0  0
   17.2632    3.7787   19.5266 H   0  0  0  0  0  0  0  0  0  0  0  0
   15.6533    5.6417   19.0947 H   0  0  0  0  0  0  0  0  0  0  0  0
   14.5435    4.5113   18.3425 H   0  0  0  0  0  0  0  0  0  0  0  0
   15.8756    5.8395   16.6695 H   0  0  0  0  0  0  0  0  0  0  0  0
   17.3703    5.2147   17.3524 H   0  0  0  0  0  0  0  0  0  0  0  0
   14.2209    4.3393   16.1987 H   0  0  0  0  0  0  0  0  0  0  0  0
   14.5236    2.6251   14.0148 H   0  0  0  0  0  0  0  0  0  0  0  0
   13.0695    2.7343   15.0373 H   0  0  0  0  0  0  0  0  0  0  0  0
   15.5640    1.0097   15.5524 H   0  0  0  0  0  0  0  0  0  0  0  0
   13.0592    1.1811   17.0394 H   0  0  0  0  0  0  0  0  0  0  0  0
   15.3527   -0.6393   17.3293 H   0  0  0  0  0  0  0  0  0  0  0  0
   13.7784   -0.8299   18.0665 H   0  0  0  0  0  0  0  0  0  0  0  0
   12.9120    0.3108   14.5783 H   0  0  0  0  0  0  0  0  0  0  0  0
   11.7892   -1.0959   16.6971 H   0  0  0  0  0  0  0  0  0  0  0  0
   12.0788   -3.8782   16.3494 H   0  0  0  0  0  0  0  0  0  0  0  0
   12.7638   -3.0280   17.7619 H   0  0  0  0  0  0  0  0  0  0  0  0
   16.4853   -1.3834   15.5190 H   0  0  0  0  0  0  0  0  0  0  0  0
   16.4205   -3.0889   15.0993 H   0  0  0  0  0  0  0  0  0  0  0  0
   15.3707   -2.5011   12.8745 H   0  0  0  0  0  0  0  0  0  0  0  0
   15.6489   -0.7940   13.2331 H   0  0  0  0  0  0  0  0  0  0  0  0
   17.0212   -1.8918   13.0956 H   0  0  0  0  0  0  0  0  0  0  0  0
  1  2  1  0
  2  3  1  0
  3  4  1  0
  4  5  2  0
  4  6  1  0
  6  7  1  0
  7  8  1  0
  8  9  1  0
  9 10  1  0
 10 11  1  0
 11 12  1  0
 11 13  1  0
 13 14  1  0
 14 15  1  0
 14 16  1  0
 14 17  1  0
 13 18  1  0
 18 19  1  0
 19 20  2  0
 19 21  1  0
 21 22  1  0
 22 23  1  0
 12  8  1  0
 21 11  1  0
  1 24  1  0
  1 25  1  0
  1 26  1  0
  2 27  1  0
  2 28  1  0
  3 29  1  0
  3 30  1  0
  6 31  1  0
  7 32  1  0
  7 33  1  0
  8 34  1  0
  9 35  1  0
 10 36  1  0
 10 37  1  0
 12 38  1  0
 13 39  1  0
 18 40  1  0
 18 41  1  0
 22 42  1  0
 22 43  1  0
 23 44  1  0
 23 45  1  0
 23 46  1  0
M  END
>  <Energy>  (31) 
-50.186633458801637

>  <compound_id>  (31) 
3103

>  <target_id>  (31) 
1

>  <reference_id>  (31) 
98

>  <inspiration_ids>  (31) 
[98, 55]

>  <energy_score>  (31) 
-18.182646465403423

>  <distance_score>  (31) 
1.6018114516289144

>  <path>  (31) 
/opt/xchem-fragalysis-2/maxwin/BulkDock/SCRATCH/505734/C3103-P98/C3103-P98.minimised.mol

>  <scratch_subdir>  (31) 
/opt/xchem-fragalysis-2/maxwin/BulkDock/SCRATCH/505734/C3103-P98

>  <fragmenstein_runtime>  (31) 
3.9997472763061523

>  <fragmenstein_outcome>  (31) 
too moved

>  <fragmenstein_mode>  (31) 
expansion

>  <fragmenstein_error>  (31) 


$$$$
C3103-P55
     RDKit          3D

 46 47  0  0  0  0  0  0  0  0999 V2000
   15.3696    4.0753   19.7660 C   0  0  0  0  0  0  0  0  0  0  0  0
   16.2438    4.5895   18.6342 C   0  0  0  0  0  0  0  0  0  0  0  0
   17.3712    3.6356   18.2636 C   0  0  0  0  0  0  0  0  0  0  0  0
   16.8671    2.2848   17.7782 C   0  0  0  0  0  0  0  0  0  0  0  0
   16.9810    1.3114   18.4094 O   0  0  0  0  0  0  0  0  0  0  0  0
   16.2037    2.5134   16.3991 N   0  0  0  0  0  0  0  0  0  0  0  0
   15.6271    1.5725   15.4692 C   0  0  0  0  0  0  0  0  0  0  0  0
   14.1564    1.1596   15.7886 C   0  0  0  0  0  0  0  0  0  0  0  0
   13.8759    0.8173   17.1771 N   0  0  0  0  0  0  0  0  0  0  0  0
   14.2849   -0.5777   17.2579 C   0  0  0  0  0  0  0  0  0  0  0  0
   13.7177   -1.1496   15.9393 C   0  0  0  0  0  0  0  0  0  0  0  0
   13.8227   -0.0316   15.0095 N   0  0  0  0  0  0  0  0  0  0  0  0
   12.3223   -1.7131   16.1468 C   0  0  0  0  0  0  0  0  0  0  0  0
   11.5432   -1.9169   14.8743 C   0  0  0  0  0  0  0  0  0  0  0  0
   10.2951   -2.3147   15.2153 F   0  0  0  0  0  0  0  0  0  0  0  0
   11.4361   -0.7406   14.2178 F   0  0  0  0  0  0  0  0  0  0  0  0
   12.0620   -2.8308   14.0399 F   0  0  0  0  0  0  0  0  0  0  0  0
   12.6010   -3.0610   16.8048 C   0  0  0  0  0  0  0  0  0  0  0  0
   13.9798   -3.3840   16.3124 C   0  0  0  0  0  0  0  0  0  0  0  0
   14.5893   -4.3864   16.6318 O   0  0  0  0  0  0  0  0  0  0  0  0
   14.4457   -2.3194   15.5349 N   0  0  0  0  0  0  0  0  0  0  0  0
   15.8138   -2.3179   15.0196 C   0  0  0  0  0  0  0  0  0  0  0  0
   15.9104   -1.9035   13.5597 C   0  0  0  0  0  0  0  0  0  0  0  0
   15.9685    3.8541   20.6552 H   0  0  0  0  0  0  0  0  0  0  0  0
   14.6248    4.8296   20.0393 H   0  0  0  0  0  0  0  0  0  0  0  0
   14.8322    3.1669   19.4775 H   0  0  0  0  0  0  0  0  0  0  0  0
   16.6851    5.5456   18.9406 H   0  0  0  0  0  0  0  0  0  0  0  0
   15.6079    4.8051   17.7688 H   0  0  0  0  0  0  0  0  0  0  0  0
   17.9997    4.0765   17.4809 H   0  0  0  0  0  0  0  0  0  0  0  0
   18.0237    3.4658   19.1286 H   0  0  0  0  0  0  0  0  0  0  0  0
   16.2106    3.5024   16.1800 H   0  0  0  0  0  0  0  0  0  0  0  0
   16.2836    0.6964   15.4894 H   0  0  0  0  0  0  0  0  0  0  0  0
   15.6856    2.0134   14.4682 H   0  0  0  0  0  0  0  0  0  0  0  0
   13.5058    1.9953   15.5054 H   0  0  0  0  0  0  0  0  0  0  0  0
   14.4864    1.3693   17.7823 H   0  0  0  0  0  0  0  0  0  0  0  0
   15.3771   -0.6511   17.3117 H   0  0  0  0  0  0  0  0  0  0  0  0
   13.8934   -1.0443   18.1625 H   0  0  0  0  0  0  0  0  0  0  0  0
   12.9303    0.1341   14.5429 H   0  0  0  0  0  0  0  0  0  0  0  0
   11.7254   -1.0614   16.7855 H   0  0  0  0  0  0  0  0  0  0  0  0
   11.8981   -3.8472   16.5179 H   0  0  0  0  0  0  0  0  0  0  0  0
   12.6622   -2.9911   17.8916 H   0  0  0  0  0  0  0  0  0  0  0  0
   16.4408   -1.6831   15.6518 H   0  0  0  0  0  0  0  0  0  0  0  0
   16.2164   -3.3338   15.1049 H   0  0  0  0  0  0  0  0  0  0  0  0
   15.2128   -2.4742   12.9389 H   0  0  0  0  0  0  0  0  0  0  0  0
   15.6934   -0.8426   13.4170 H   0  0  0  0  0  0  0  0  0  0  0  0
   16.9244   -2.0804   13.1867 H   0  0  0  0  0  0  0  0  0  0  0  0
  1  2  1  0
  2  3  1  0
  3  4  1  0
  4  5  2  0
  4  6  1  0
  6  7  1  0
  7  8  1  0
  8  9  1  0
  9 10  1  0
 10 11  1  0
 11 12  1  0
 11 13  1  0
 13 14  1  0
 14 15  1  0
 14 16  1  0
 14 17  1  0
 13 18  1  0
 18 19  1  0
 19 20  2  0
 19 21  1  0
 21 22  1  0
 22 23  1  0
 12  8  1  0
 21 11  1  0
  1 24  1  0
  1 25  1  0
  1 26  1  0
  2 27  1  0
  2 28  1  0
  3 29  1  0
  3 30  1  0
  6 31  1  0
  7 32  1  0
  7 33  1  0
  8 34  1  0
  9 35  1  0
 10 36  1  0
 10 37  1  0
 12 38  1  0
 13 39  1  0
 18 40  1  0
 18 41  1  0
 22 42  1  0
 22 43  1  0
 23 44  1  0
 23 45  1  0
 23 46  1  0
M  END
>  <Energy>  (32) 
-55.267394168447758

>  <compound_id>  (32) 
3103

>  <target_id>  (32) 
1

>  <reference_id>  (32) 
55

>  <inspiration_ids>  (32) 
[98, 55]

>  <energy_score>  (32) 
-23.263407175049657

>  <distance_score>  (32) 
1.7555136911973446

>  <path>  (32) 
/opt/xchem-fragalysis-2/maxwin/BulkDock/SCRATCH/505734/C3103-P55/C3103-P55.minimised.mol

>  <scratch_subdir>  (32) 
/opt/xchem-fragalysis-2/maxwin/BulkDock/SCRATCH/505734/C3103-P55

>  <fragmenstein_runtime>  (32) 
4.044265270233154

>  <fragmenstein_outcome>  (32) 
too moved

>  <fragmenstein_mode>  (32) 
expansion

>  <fragmenstein_error>  (32) 


$$$$
C3104-P98
     RDKit          3D

 34 35  0  0  0  0  0  0  0  0999 V2000
   17.1426   -4.2667   17.5191 C   0  0  0  0  0  0  0  0  0  0  0  0
   16.2053   -3.0991   17.2368 C   0  0  0  0  0  0  0  0  0  0  0  0
   14.7901   -3.1621   17.8849 C   0  0  0  0  0  0  0  0  0  0  0  0
   14.8157   -3.0632   19.4221 C   0  0  0  0  0  0  0  0  0  0  0  0
   15.1322   -1.8121   19.9770 C   0  0  0  0  0  0  0  0  0  0  0  0
   15.1971   -1.6125   21.3611 C   0  0  0  0  0  0  0  0  0  0  0  0
   14.9014   -2.6440   22.2421 C   0  0  0  0  0  0  0  0  0  0  0  0
   14.5881   -3.8928   21.7370 C   0  0  0  0  0  0  0  0  0  0  0  0
   14.6109   -4.1165   20.3500 C   0  0  0  0  0  0  0  0  0  0  0  0
   14.4432   -5.4077   19.9389 O   0  0  0  0  0  0  0  0  0  0  0  0
   15.4526   -6.2622   20.4775 C   0  0  0  0  0  0  0  0  0  0  0  0
   15.7175   -7.2276   19.5643 F   0  0  0  0  0  0  0  0  0  0  0  0
   14.9341   -6.8921   21.5634 F   0  0  0  0  0  0  0  0  0  0  0  0
   14.0133   -2.0120   17.2033 N   0  0  0  0  0  0  0  0  0  0  0  0
   13.0644   -2.5377   16.4678 C   0  0  0  0  0  0  0  0  0  0  0  0
   12.1597   -1.8565   15.4566 C   0  0  0  0  0  0  0  0  0  0  0  0
   12.1408   -2.5366   14.2761 F   0  0  0  0  0  0  0  0  0  0  0  0
   12.5118   -0.5813   15.1689 F   0  0  0  0  0  0  0  0  0  0  0  0
   10.8664   -1.8217   15.8860 F   0  0  0  0  0  0  0  0  0  0  0  0
   12.8464   -3.9856   16.6482 C   0  0  0  0  0  0  0  0  0  0  0  0
   14.0578   -4.3739   17.3746 C   0  0  0  0  0  0  0  0  0  0  0  0
   14.4121   -5.5312   17.4926 O   0  0  0  0  0  0  0  0  0  0  0  0
   16.7979   -5.1926   17.0522 H   0  0  0  0  0  0  0  0  0  0  0  0
   17.2610   -4.4354   18.5929 H   0  0  0  0  0  0  0  0  0  0  0  0
   18.1341   -4.0507   17.1068 H   0  0  0  0  0  0  0  0  0  0  0  0
   16.7054   -2.1729   17.5486 H   0  0  0  0  0  0  0  0  0  0  0  0
   16.1015   -3.0252   16.1451 H   0  0  0  0  0  0  0  0  0  0  0  0
   15.3289   -0.9610   19.3254 H   0  0  0  0  0  0  0  0  0  0  0  0
   15.4324   -0.6248   21.7512 H   0  0  0  0  0  0  0  0  0  0  0  0
   14.8929   -2.4648   23.3134 H   0  0  0  0  0  0  0  0  0  0  0  0
   14.3375   -4.6910   22.4316 H   0  0  0  0  0  0  0  0  0  0  0  0
   16.3926   -5.7611   20.7386 H   0  0  0  0  0  0  0  0  0  0  0  0
   11.9479   -4.1970   17.2116 H   0  0  0  0  0  0  0  0  0  0  0  0
   12.8262   -4.4464   15.6823 H   0  0  0  0  0  0  0  0  0  0  0  0
  1  2  1  0
  2  3  1  0
  3  4  1  0
  4  5  2  0
  5  6  1  0
  6  7  2  0
  7  8  1  0
  8  9  2  0
  9 10  1  0
 10 11  1  0
 11 12  1  0
 11 13  1  0
  3 14  1  0
 14 15  2  0
 15 16  1  0
 16 17  1  0
 16 18  1  0
 16 19  1  0
 15 20  1  0
 20 21  1  0
 21 22  2  0
 21  3  1  0
  9  4  1  0
  1 23  1  0
  1 24  1  0
  1 25  1  0
  2 26  1  0
  2 27  1  0
  5 28  1  0
  6 29  1  0
  7 30  1  0
  8 31  1  0
 11 32  1  0
 20 33  1  0
 20 34  1  0
M  END
>  <Energy>  (33) 
109.12290684592062

>  <compound_id>  (33) 
3104

>  <target_id>  (33) 
1

>  <reference_id>  (33) 
98

>  <inspiration_ids>  (33) 
[98, 60]

>  <energy_score>  (33) 
-25.114508886357186

>  <distance_score>  (33) 
1.1367310406659499

>  <path>  (33) 
/opt/xchem-fragalysis-2/maxwin/BulkDock/SCRATCH/505734/C3104-P98/C3104-P98.minimised.mol

>  <scratch_subdir>  (33) 
/opt/xchem-fragalysis-2/maxwin/BulkDock/SCRATCH/505734/C3104-P98

>  <fragmenstein_runtime>  (33) 
28.394232511520386

>  <fragmenstein_outcome>  (33) 
too moved

>  <fragmenstein_mode>  (33) 
expansion

>  <fragmenstein_error>  (33) 


$$$$
C3104-P60
     RDKit          3D

 34 35  0  0  0  0  0  0  0  0999 V2000
   16.9416   -4.3552   17.1565 C   0  0  0  0  0  0  0  0  0  0  0  0
   16.0171   -3.1642   16.9699 C   0  0  0  0  0  0  0  0  0  0  0  0
   14.6787   -3.1295   17.7607 C   0  0  0  0  0  0  0  0  0  0  0  0
   14.8449   -3.0772   19.2952 C   0  0  0  0  0  0  0  0  0  0  0  0
   14.7470   -1.8395   19.9420 C   0  0  0  0  0  0  0  0  0  0  0  0
   14.7685   -1.7429   21.3370 C   0  0  0  0  0  0  0  0  0  0  0  0
   14.8468   -2.8801   22.1284 C   0  0  0  0  0  0  0  0  0  0  0  0
   15.0034   -4.1163   21.5245 C   0  0  0  0  0  0  0  0  0  0  0  0
   15.0846   -4.2108   20.1262 C   0  0  0  0  0  0  0  0  0  0  0  0
   15.4343   -5.3862   19.5196 O   0  0  0  0  0  0  0  0  0  0  0  0
   16.1848   -6.3169   20.2820 C   0  0  0  0  0  0  0  0  0  0  0  0
   16.7687   -7.1771   19.4109 F   0  0  0  0  0  0  0  0  0  0  0  0
   15.3338   -7.0482   21.0442 F   0  0  0  0  0  0  0  0  0  0  0  0
   13.9453   -1.9094   17.1391 N   0  0  0  0  0  0  0  0  0  0  0  0
   12.9742   -2.3552   16.3787 C   0  0  0  0  0  0  0  0  0  0  0  0
   12.0903   -1.6101   15.4048 C   0  0  0  0  0  0  0  0  0  0  0  0
   12.0426   -2.2568   14.2060 F   0  0  0  0  0  0  0  0  0  0  0  0
   12.4807   -0.3408   15.1540 F   0  0  0  0  0  0  0  0  0  0  0  0
   10.8080   -1.5615   15.8602 F   0  0  0  0  0  0  0  0  0  0  0  0
   12.6683   -3.7884   16.4893 C   0  0  0  0  0  0  0  0  0  0  0  0
   13.7380   -4.2542   17.3666 C   0  0  0  0  0  0  0  0  0  0  0  0
   13.7949   -5.4179   17.7057 O   0  0  0  0  0  0  0  0  0  0  0  0
   16.4332   -5.2993   16.9562 H   0  0  0  0  0  0  0  0  0  0  0  0
   17.3663   -4.3767   18.1633 H   0  0  0  0  0  0  0  0  0  0  0  0
   17.7824   -4.2822   16.4581 H   0  0  0  0  0  0  0  0  0  0  0  0
   16.5864   -2.2532   17.1994 H   0  0  0  0  0  0  0  0  0  0  0  0
   15.7916   -3.1098   15.8952 H   0  0  0  0  0  0  0  0  0  0  0  0
   14.6237   -0.9245   19.3653 H   0  0  0  0  0  0  0  0  0  0  0  0
   14.6510   -0.7696   21.8093 H   0  0  0  0  0  0  0  0  0  0  0  0
   14.7896   -2.7950   23.2101 H   0  0  0  0  0  0  0  0  0  0  0  0
   15.0730   -4.9865   22.1700 H   0  0  0  0  0  0  0  0  0  0  0  0
   16.9689   -5.8610   20.8967 H   0  0  0  0  0  0  0  0  0  0  0  0
   11.6877   -3.9544   16.9227 H   0  0  0  0  0  0  0  0  0  0  0  0
   12.7456   -4.2331   15.5138 H   0  0  0  0  0  0  0  0  0  0  0  0
  1  2  1  0
  2  3  1  0
  3  4  1  0
  4  5  2  0
  5  6  1  0
  6  7  2  0
  7  8  1  0
  8  9  2  0
  9 10  1  0
 10 11  1  0
 11 12  1  0
 11 13  1  0
  3 14  1  0
 14 15  2  0
 15 16  1  0
 16 17  1  0
 16 18  1  0
 16 19  1  0
 15 20  1  0
 20 21  1  0
 21 22  2  0
 21  3  1  0
  9  4  1  0
  1 23  1  0
  1 24  1  0
  1 25  1  0
  2 26  1  0
  2 27  1  0
  5 28  1  0
  6 29  1  0
  7 30  1  0
  8 31  1  0
 11 32  1  0
 20 33  1  0
 20 34  1  0
M  END
>  <Energy>  (34) 
111.58501547605606

>  <compound_id>  (34) 
3104

>  <target_id>  (34) 
1

>  <reference_id>  (34) 
60

>  <inspiration_ids>  (34) 
[98, 60]

>  <energy_score>  (34) 
-22.65240025621935

>  <distance_score>  (34) 
1.1500578389306646

>  <path>  (34) 
/opt/xchem-fragalysis-2/maxwin/BulkDock/SCRATCH/505734/C3104-P60/C3104-P60.minimised.mol

>  <scratch_subdir>  (34) 
/opt/xchem-fragalysis-2/maxwin/BulkDock/SCRATCH/505734/C3104-P60

>  <fragmenstein_runtime>  (34) 
28.349103212356567

>  <fragmenstein_outcome>  (34) 
too moved

>  <fragmenstein_mode>  (34) 
expansion

>  <fragmenstein_error>  (34) 


$$$$
C3105-P98
     RDKit          3D

 22 22  0  0  0  0  0  0  0  0999 V2000
   17.0678   -3.6079   16.4054 C   0  0  0  0  0  0  0  0  0  0  0  0
   16.1285   -2.7290   17.2260 C   0  0  0  0  0  0  0  0  0  0  0  0
   14.7407   -2.9893   16.9197 N   0  0  0  0  0  0  0  0  0  0  0  0
   14.1376   -4.2019   17.2542 C   0  0  0  0  0  0  0  0  0  0  0  0
   14.6211   -5.1462   17.8591 O   0  0  0  0  0  0  0  0  0  0  0  0
   12.7298   -4.1527   16.7173 C   0  0  0  0  0  0  0  0  0  0  0  0
   12.7320   -2.8626   15.9695 C   0  0  0  0  0  0  0  0  0  0  0  0
   11.6331   -2.4646   15.0608 C   0  0  0  0  0  0  0  0  0  0  0  0
   11.2090   -3.5290   14.3413 F   0  0  0  0  0  0  0  0  0  0  0  0
   12.0042   -1.5323   14.1529 F   0  0  0  0  0  0  0  0  0  0  0  0
   10.5648   -1.9885   15.7426 F   0  0  0  0  0  0  0  0  0  0  0  0
   13.8639   -2.2004   16.2179 C   0  0  0  0  0  0  0  0  0  0  0  0
   14.0068   -0.7842   15.8360 C   0  0  0  0  0  0  0  0  0  0  0  0
   13.0349   -0.0341   15.8532 O   0  0  0  0  0  0  0  0  0  0  0  0
   18.1094   -3.3703   16.6424 H   0  0  0  0  0  0  0  0  0  0  0  0
   16.9100   -4.6716   16.6075 H   0  0  0  0  0  0  0  0  0  0  0  0
   16.9134   -3.4452   15.3334 H   0  0  0  0  0  0  0  0  0  0  0  0
   16.3564   -1.6715   17.0618 H   0  0  0  0  0  0  0  0  0  0  0  0
   16.2828   -2.9415   18.2903 H   0  0  0  0  0  0  0  0  0  0  0  0
   12.5506   -5.0339   16.1297 H   0  0  0  0  0  0  0  0  0  0  0  0
   12.0497   -4.1312   17.5521 H   0  0  0  0  0  0  0  0  0  0  0  0
   15.0244   -0.4441   15.5895 H   0  0  0  0  0  0  0  0  0  0  0  0
  1  2  1  0
  2  3  1  0
  3  4  1  0
  4  5  2  0
  4  6  1  0
  6  7  1  0
  7  8  1  0
  8  9  1  0
  8 10  1  0
  8 11  1  0
  7 12  2  0
 12 13  1  0
 13 14  2  0
 12  3  1  0
  1 15  1  0
  1 16  1  0
  1 17  1  0
  2 18  1  0
  2 19  1  0
  6 20  1  0
  6 21  1  0
 13 22  1  0
M  END
>  <Energy>  (35) 
-6.9743248878050572

>  <compound_id>  (35) 
3105

>  <target_id>  (35) 
1

>  <reference_id>  (35) 
98

>  <inspiration_ids>  (35) 
[98, 63]

>  <energy_score>  (35) 
-11.06741725692551

>  <distance_score>  (35) 
0.8035039169052528

>  <path>  (35) 
/opt/xchem-fragalysis-2/maxwin/BulkDock/SCRATCH/505734/C3105-P98/C3105-P98.minimised.mol

>  <scratch_subdir>  (35) 
/opt/xchem-fragalysis-2/maxwin/BulkDock/SCRATCH/505734/C3105-P98

>  <fragmenstein_runtime>  (35) 
1.0929479598999023

>  <fragmenstein_outcome>  (35) 
acceptable

>  <fragmenstein_mode>  (35) 
expansion

>  <fragmenstein_error>  (35) 


$$$$
C3105-P63
     RDKit          3D

 22 22  0  0  0  0  0  0  0  0999 V2000
   16.9979   -3.5653   16.4719 C   0  0  0  0  0  0  0  0  0  0  0  0
   16.0587   -2.6535   17.2581 C   0  0  0  0  0  0  0  0  0  0  0  0
   14.6714   -2.9175   16.9504 N   0  0  0  0  0  0  0  0  0  0  0  0
   14.0578   -4.1117   17.3225 C   0  0  0  0  0  0  0  0  0  0  0  0
   14.5281   -5.0143   17.9981 O   0  0  0  0  0  0  0  0  0  0  0  0
   12.6743   -4.1100   16.7177 C   0  0  0  0  0  0  0  0  0  0  0  0
   12.6801   -2.8231   15.9640 C   0  0  0  0  0  0  0  0  0  0  0  0
   11.5845   -2.4416   15.0444 C   0  0  0  0  0  0  0  0  0  0  0  0
   11.1651   -3.5210   14.3455 F   0  0  0  0  0  0  0  0  0  0  0  0
   11.9646   -1.5260   14.1239 F   0  0  0  0  0  0  0  0  0  0  0  0
   10.5212   -1.9532   15.7223 F   0  0  0  0  0  0  0  0  0  0  0  0
   13.8049   -2.1501   16.2149 C   0  0  0  0  0  0  0  0  0  0  0  0
   13.9507   -0.7409   15.8101 C   0  0  0  0  0  0  0  0  0  0  0  0
   12.9784    0.0079   15.8031 O   0  0  0  0  0  0  0  0  0  0  0  0
   18.0396   -3.3277   16.7086 H   0  0  0  0  0  0  0  0  0  0  0  0
   16.8301   -4.6208   16.7070 H   0  0  0  0  0  0  0  0  0  0  0  0
   16.8517   -3.4358   15.3943 H   0  0  0  0  0  0  0  0  0  0  0  0
   16.2939   -1.6036   17.0599 H   0  0  0  0  0  0  0  0  0  0  0  0
   16.2054   -2.8316   18.3298 H   0  0  0  0  0  0  0  0  0  0  0  0
   12.5621   -4.9954   16.1153 H   0  0  0  0  0  0  0  0  0  0  0  0
   11.9388   -4.1082   17.5066 H   0  0  0  0  0  0  0  0  0  0  0  0
   14.9705   -0.4037   15.5692 H   0  0  0  0  0  0  0  0  0  0  0  0
  1  2  1  0
  2  3  1  0
  3  4  1  0
  4  5  2  0
  4  6  1  0
  6  7  1  0
  7  8  1  0
  8  9  1  0
  8 10  1  0
  8 11  1  0
  7 12  2  0
 12 13  1  0
 13 14  2  0
 12  3  1  0
  1 15  1  0
  1 16  1  0
  1 17  1  0
  2 18  1  0
  2 19  1  0
  6 20  1  0
  6 21  1  0
 13 22  1  0
M  END
>  <Energy>  (36) 
-7.4746104629005945

>  <compound_id>  (36) 
3105

>  <target_id>  (36) 
1

>  <reference_id>  (36) 
63

>  <inspiration_ids>  (36) 
[98, 63]

>  <energy_score>  (36) 
-11.567702832020913

>  <distance_score>  (36) 
0.8185822675828908

>  <path>  (36) 
/opt/xchem-fragalysis-2/maxwin/BulkDock/SCRATCH/505734/C3105-P63/C3105-P63.minimised.mol

>  <scratch_subdir>  (36) 
/opt/xchem-fragalysis-2/maxwin/BulkDock/SCRATCH/505734/C3105-P63

>  <fragmenstein_runtime>  (36) 
1.2373206615447998

>  <fragmenstein_outcome>  (36) 
acceptable

>  <fragmenstein_mode>  (36) 
expansion

>  <fragmenstein_error>  (36) 


$$$$
C1055-P98
     RDKit          3D

 26 27  0  0  0  0  0  0  0  0999 V2000
   17.1054   -4.6293   15.9699 C   0  0  0  0  0  0  0  0  0  0  0  0
   16.5446   -3.4100   16.6751 C   0  0  0  0  0  0  0  0  0  0  0  0
   15.1083   -3.2902   16.5495 N   0  0  0  0  0  0  0  0  0  0  0  0
   14.4948   -2.6076   15.4900 N   0  0  0  0  0  0  0  0  0  0  0  0
   13.0861   -2.4707   15.8915 C   0  0  0  0  0  0  0  0  0  0  0  0
   12.8439   -3.6773   16.7958 C   0  0  0  0  0  0  0  0  0  0  0  0
   14.2116   -4.1235   17.2007 C   0  0  0  0  0  0  0  0  0  0  0  0
   14.4600   -5.0505   17.9576 O   0  0  0  0  0  0  0  0  0  0  0  0
   12.9925   -1.1652   16.5795 N   0  0  0  0  0  0  0  0  0  0  0  0
   12.4031   -0.2466   15.6024 C   0  0  0  0  0  0  0  0  0  0  0  0
   12.1790   -0.9590   14.3647 N   0  0  0  0  0  0  0  0  0  0  0  0
   11.9938   -2.3232   14.8070 C   0  0  0  0  0  0  0  0  0  0  0  0
   12.0786   -3.1719   13.7772 F   0  0  0  0  0  0  0  0  0  0  0  0
   10.7519   -2.4280   15.3427 F   0  0  0  0  0  0  0  0  0  0  0  0
   18.1891   -4.6854   16.1116 H   0  0  0  0  0  0  0  0  0  0  0  0
   16.6644   -5.5548   16.3519 H   0  0  0  0  0  0  0  0  0  0  0  0
   16.9058   -4.5815   14.8958 H   0  0  0  0  0  0  0  0  0  0  0  0
   17.0090   -2.4950   16.2913 H   0  0  0  0  0  0  0  0  0  0  0  0
   16.7772   -3.4802   17.7438 H   0  0  0  0  0  0  0  0  0  0  0  0
   14.9121   -1.7008   15.2973 H   0  0  0  0  0  0  0  0  0  0  0  0
   12.3319   -4.4975   16.2917 H   0  0  0  0  0  0  0  0  0  0  0  0
   12.3224   -3.4037   17.7041 H   0  0  0  0  0  0  0  0  0  0  0  0
   13.9303   -0.8713   16.8357 H   0  0  0  0  0  0  0  0  0  0  0  0
   11.4551    0.1329   15.9992 H   0  0  0  0  0  0  0  0  0  0  0  0
   13.0588    0.6134   15.4335 H   0  0  0  0  0  0  0  0  0  0  0  0
   11.2927   -0.6994   13.9308 H   0  0  0  0  0  0  0  0  0  0  0  0
  1  2  1  0
  2  3  1  0
  3  4  1  0
  4  5  1  0
  5  6  1  0
  6  7  1  0
  7  8  2  0
  5  9  1  0
  9 10  1  0
 10 11  1  0
 11 12  1  0
 12 13  1  0
 12 14  1  0
  7  3  1  0
 12  5  1  0
  1 15  1  0
  1 16  1  0
  1 17  1  0
  2 18  1  0
  2 19  1  0
  4 20  1  0
  6 21  1  0
  6 22  1  0
  9 23  1  0
 10 24  1  0
 10 25  1  0
 11 26  1  0
M  END
>  <Energy>  (37) 
13.085982969195493

>  <compound_id>  (37) 
1055

>  <target_id>  (37) 
1

>  <reference_id>  (37) 
98

>  <inspiration_ids>  (37) 
[98, 71]

>  <energy_score>  (37) 
-28.44952563712829

>  <distance_score>  (37) 
0.8318534783163627

>  <path>  (37) 
/opt/xchem-fragalysis-2/maxwin/BulkDock/SCRATCH/505734/C1055-P98/C1055-P98.minimised.mol

>  <scratch_subdir>  (37) 
/opt/xchem-fragalysis-2/maxwin/BulkDock/SCRATCH/505734/C1055-P98

>  <fragmenstein_runtime>  (37) 
1.0476219654083252

>  <fragmenstein_outcome>  (37) 
acceptable

>  <fragmenstein_mode>  (37) 
expansion

>  <fragmenstein_error>  (37) 


$$$$
C1055-P71
     RDKit          3D

 26 27  0  0  0  0  0  0  0  0999 V2000
   17.0929   -4.5470   16.0233 C   0  0  0  0  0  0  0  0  0  0  0  0
   16.5099   -3.3064   16.6729 C   0  0  0  0  0  0  0  0  0  0  0  0
   15.0707   -3.2227   16.5462 N   0  0  0  0  0  0  0  0  0  0  0  0
   14.4428   -2.5805   15.4701 N   0  0  0  0  0  0  0  0  0  0  0  0
   13.0326   -2.4638   15.8771 C   0  0  0  0  0  0  0  0  0  0  0  0
   12.8135   -3.6832   16.7648 C   0  0  0  0  0  0  0  0  0  0  0  0
   14.1873   -4.0430   17.2302 C   0  0  0  0  0  0  0  0  0  0  0  0
   14.4511   -4.9192   18.0406 O   0  0  0  0  0  0  0  0  0  0  0  0
   12.9170   -1.1740   16.5919 N   0  0  0  0  0  0  0  0  0  0  0  0
   12.2761   -0.2597   15.6431 C   0  0  0  0  0  0  0  0  0  0  0  0
   12.1003   -0.9458   14.3816 N   0  0  0  0  0  0  0  0  0  0  0  0
   11.9444   -2.3241   14.7924 C   0  0  0  0  0  0  0  0  0  0  0  0
   12.0633   -3.1519   13.7487 F   0  0  0  0  0  0  0  0  0  0  0  0
   10.7048   -2.4741   15.3188 F   0  0  0  0  0  0  0  0  0  0  0  0
   16.7050   -5.4596   16.4845 H   0  0  0  0  0  0  0  0  0  0  0  0
   16.8511   -4.5807   14.9569 H   0  0  0  0  0  0  0  0  0  0  0  0
   18.1823   -4.5536   16.1272 H   0  0  0  0  0  0  0  0  0  0  0  0
   16.9536   -2.4022   16.2422 H   0  0  0  0  0  0  0  0  0  0  0  0
   16.7479   -3.3196   17.7426 H   0  0  0  0  0  0  0  0  0  0  0  0
   14.8336   -1.6645   15.2627 H   0  0  0  0  0  0  0  0  0  0  0  0
   12.3854   -4.5325   16.2293 H   0  0  0  0  0  0  0  0  0  0  0  0
   12.2204   -3.4450   17.6381 H   0  0  0  0  0  0  0  0  0  0  0  0
   13.8517   -0.8517   16.8241 H   0  0  0  0  0  0  0  0  0  0  0  0
   11.3049    0.0473   16.0461 H   0  0  0  0  0  0  0  0  0  0  0  0
   12.8780    0.6443   15.5067 H   0  0  0  0  0  0  0  0  0  0  0  0
   11.2102   -0.7077   13.9417 H   0  0  0  0  0  0  0  0  0  0  0  0
  1  2  1  0
  2  3  1  0
  3  4  1  0
  4  5  1  0
  5  6  1  0
  6  7  1  0
  7  8  2  0
  5  9  1  0
  9 10  1  0
 10 11  1  0
 11 12  1  0
 12 13  1  0
 12 14  1  0
  7  3  1  0
 12  5  1  0
  1 15  1  0
  1 16  1  0
  1 17  1  0
  2 18  1  0
  2 19  1  0
  4 20  1  0
  6 21  1  0
  6 22  1  0
  9 23  1  0
 10 24  1  0
 10 25  1  0
 11 26  1  0
M  END
>  <Energy>  (38) 
12.105291570556364

>  <compound_id>  (38) 
1055

>  <target_id>  (38) 
1

>  <reference_id>  (38) 
71

>  <inspiration_ids>  (38) 
[98, 71]

>  <energy_score>  (38) 
-29.430217035767555

>  <distance_score>  (38) 
0.84150961279093

>  <path>  (38) 
/opt/xchem-fragalysis-2/maxwin/BulkDock/SCRATCH/505734/C1055-P71/C1055-P71.minimised.mol

>  <scratch_subdir>  (38) 
/opt/xchem-fragalysis-2/maxwin/BulkDock/SCRATCH/505734/C1055-P71

>  <fragmenstein_runtime>  (38) 
0.943138599395752

>  <fragmenstein_outcome>  (38) 
acceptable

>  <fragmenstein_mode>  (38) 
expansion

>  <fragmenstein_error>  (38) 


$$$$
C3111-P98
     RDKit          3D

 40 41  0  0  0  0  0  0  0  0999 V2000
   16.9763   -3.9996   16.2629 C   0  0  0  0  0  0  0  0  0  0  0  0
   16.5451   -3.3863   17.5895 C   0  0  0  0  0  0  0  0  0  0  0  0
   15.1179   -3.1362   17.6896 N   0  0  0  0  0  0  0  0  0  0  0  0
   14.2951   -4.2781   17.6548 C   0  0  0  0  0  0  0  0  0  0  0  0
   14.5666   -5.3768   18.1283 O   0  0  0  0  0  0  0  0  0  0  0  0
   13.0658   -4.0129   16.8264 C   0  0  0  0  0  0  0  0  0  0  0  0
   13.3549   -2.6472   16.3276 C   0  0  0  0  0  0  0  0  0  0  0  0
   12.6331   -1.9068   15.4671 C   0  0  0  0  0  0  0  0  0  0  0  0
   11.5956   -2.4402   14.7604 O   0  0  0  0  0  0  0  0  0  0  0  0
   12.0501   -2.5619   13.4226 C   0  0  0  0  0  0  0  0  0  0  0  0
   11.5256   -3.7130   12.9464 F   0  0  0  0  0  0  0  0  0  0  0  0
   12.9914   -0.5871   15.2464 N   0  0  0  0  0  0  0  0  0  0  0  0
   13.9845   -0.0141   16.0231 C   0  0  0  0  0  0  0  0  0  0  0  0
   14.7520   -0.7627   16.8577 C   0  0  0  0  0  0  0  0  0  0  0  0
   15.7418   -0.0846   17.7707 C   0  0  0  0  0  0  0  0  0  0  0  0
   15.3395   -0.1912   19.2435 C   0  0  0  0  0  0  0  0  0  0  0  0
   16.2091    0.5825   20.0962 N   0  0  0  0  0  0  0  0  0  0  0  0
   16.4030    2.1149   20.2094 C   0  0  0  0  0  0  0  0  0  0  0  0
   17.3858    2.3331   21.3390 C   0  0  0  0  0  0  0  0  0  0  0  0
   15.9467    2.9828   19.5784 O   0  0  0  0  0  0  0  0  0  0  0  0
   14.5258   -2.1537   16.8900 N   0  0  0  0  0  0  0  0  0  0  0  0
   16.4888   -4.9634   16.0851 H   0  0  0  0  0  0  0  0  0  0  0  0
   16.7271   -3.3397   15.4256 H   0  0  0  0  0  0  0  0  0  0  0  0
   18.0584   -4.1631   16.2571 H   0  0  0  0  0  0  0  0  0  0  0  0
   17.1002   -2.4686   17.7794 H   0  0  0  0  0  0  0  0  0  0  0  0
   16.8142   -4.0798   18.3957 H   0  0  0  0  0  0  0  0  0  0  0  0
   13.0211   -4.7469   16.0358 H   0  0  0  0  0  0  0  0  0  0  0  0
   12.1853   -4.0556   17.4545 H   0  0  0  0  0  0  0  0  0  0  0  0
   13.1380   -2.6260   13.3086 H   0  0  0  0  0  0  0  0  0  0  0  0
   11.7117   -1.7107   12.8337 H   0  0  0  0  0  0  0  0  0  0  0  0
   12.2823    0.0160   14.8446 H   0  0  0  0  0  0  0  0  0  0  0  0
   14.0638    1.0651   15.9396 H   0  0  0  0  0  0  0  0  0  0  0  0
   15.8124    0.9799   17.5074 H   0  0  0  0  0  0  0  0  0  0  0  0
   16.7528   -0.4673   17.6084 H   0  0  0  0  0  0  0  0  0  0  0  0
   14.3272    0.2021   19.3856 H   0  0  0  0  0  0  0  0  0  0  0  0
   15.3658   -1.2229   19.6043 H   0  0  0  0  0  0  0  0  0  0  0  0
   16.8221    0.1137   20.7544 H   0  0  0  0  0  0  0  0  0  0  0  0
   17.0112    1.8735   22.2579 H   0  0  0  0  0  0  0  0  0  0  0  0
   17.5062    3.4063   21.5131 H   0  0  0  0  0  0  0  0  0  0  0  0
   18.3572    1.9077   21.0732 H   0  0  0  0  0  0  0  0  0  0  0  0
  1  2  1  0
  2  3  1  0
  3  4  1  0
  4  5  2  0
  4  6  1  0
  6  7  1  0
  7  8  2  0
  8  9  1  0
  9 10  1  0
 10 11  1  0
  8 12  1  0
 12 13  1  0
 13 14  2  0
 14 15  1  0
 15 16  1  0
 16 17  1  0
 17 18  1  0
 18 19  1  0
 18 20  2  0
 14 21  1  0
 21  3  1  0
 21  7  1  0
  1 22  1  0
  1 23  1  0
  1 24  1  0
  2 25  1  0
  2 26  1  0
  6 27  1  0
  6 28  1  0
 10 29  1  0
 10 30  1  0
 12 31  1  0
 13 32  1  0
 15 33  1  0
 15 34  1  0
 16 35  1  0
 16 36  1  0
 17 37  1  0
 19 38  1  0
 19 39  1  0
 19 40  1  0
M  END
>  <Energy>  (39) 
36.263401309598926

>  <compound_id>  (39) 
3111

>  <target_id>  (39) 
1

>  <reference_id>  (39) 
98

>  <inspiration_ids>  (39) 
[98, 86]

>  <energy_score>  (39) 
-23.69558603386301

>  <distance_score>  (39) 
1.4004434619440123

>  <path>  (39) 
/opt/xchem-fragalysis-2/maxwin/BulkDock/SCRATCH/505734/C3111-P98/C3111-P98.minimised.mol

>  <scratch_subdir>  (39) 
/opt/xchem-fragalysis-2/maxwin/BulkDock/SCRATCH/505734/C3111-P98

>  <fragmenstein_runtime>  (39) 
2.9088523387908936

>  <fragmenstein_outcome>  (39) 
too moved

>  <fragmenstein_mode>  (39) 
expansion

>  <fragmenstein_error>  (39) 


$$$$
C3111-P86
     RDKit          3D

 40 41  0  0  0  0  0  0  0  0999 V2000
   16.9715   -3.9558   16.2608 C   0  0  0  0  0  0  0  0  0  0  0  0
   16.5562   -3.3480   17.5953 C   0  0  0  0  0  0  0  0  0  0  0  0
   15.1276   -3.1165   17.7196 N   0  0  0  0  0  0  0  0  0  0  0  0
   14.3150   -4.2619   17.6805 C   0  0  0  0  0  0  0  0  0  0  0  0
   14.6016   -5.3625   18.1378 O   0  0  0  0  0  0  0  0  0  0  0  0
   13.0689   -4.0063   16.8744 C   0  0  0  0  0  0  0  0  0  0  0  0
   13.3256   -2.6197   16.4230 C   0  0  0  0  0  0  0  0  0  0  0  0
   12.5600   -1.8690   15.6164 C   0  0  0  0  0  0  0  0  0  0  0  0
   11.5415   -2.4245   14.8982 O   0  0  0  0  0  0  0  0  0  0  0  0
   12.0213   -2.4768   13.5657 C   0  0  0  0  0  0  0  0  0  0  0  0
   11.4918   -3.5899   13.0069 F   0  0  0  0  0  0  0  0  0  0  0  0
   12.8838   -0.5384   15.4284 N   0  0  0  0  0  0  0  0  0  0  0  0
   13.9013    0.0281   16.1802 C   0  0  0  0  0  0  0  0  0  0  0  0
   14.7290   -0.7265   16.9497 C   0  0  0  0  0  0  0  0  0  0  0  0
   15.7924   -0.1357   17.8545 C   0  0  0  0  0  0  0  0  0  0  0  0
   15.7109    1.3583   18.1997 C   0  0  0  0  0  0  0  0  0  0  0  0
   16.2653    2.2130   17.1748 N   0  0  0  0  0  0  0  0  0  0  0  0
   15.5938    3.3044   16.3034 C   0  0  0  0  0  0  0  0  0  0  0  0
   16.6983    3.9162   15.4695 C   0  0  0  0  0  0  0  0  0  0  0  0
   14.4758    3.6270   16.2252 O   0  0  0  0  0  0  0  0  0  0  0  0
   14.5094   -2.1254   16.9527 N   0  0  0  0  0  0  0  0  0  0  0  0
   16.4954   -4.9269   16.0920 H   0  0  0  0  0  0  0  0  0  0  0  0
   16.6965   -3.2997   15.4285 H   0  0  0  0  0  0  0  0  0  0  0  0
   18.0556   -4.1031   16.2347 H   0  0  0  0  0  0  0  0  0  0  0  0
   17.1033   -2.4223   17.7743 H   0  0  0  0  0  0  0  0  0  0  0  0
   16.8475   -4.0385   18.3964 H   0  0  0  0  0  0  0  0  0  0  0  0
   13.0272   -4.7121   16.0524 H   0  0  0  0  0  0  0  0  0  0  0  0
   12.1953   -4.0863   17.5142 H   0  0  0  0  0  0  0  0  0  0  0  0
   13.1101   -2.5456   13.4663 H   0  0  0  0  0  0  0  0  0  0  0  0
   11.7088   -1.5788   13.0383 H   0  0  0  0  0  0  0  0  0  0  0  0
   12.1582    0.0706   15.0663 H   0  0  0  0  0  0  0  0  0  0  0  0
   13.9395    1.1069   16.1085 H   0  0  0  0  0  0  0  0  0  0  0  0
   16.7762   -0.3382   17.4156 H   0  0  0  0  0  0  0  0  0  0  0  0
   15.7398   -0.6694   18.8124 H   0  0  0  0  0  0  0  0  0  0  0  0
   14.6834    1.6735   18.4086 H   0  0  0  0  0  0  0  0  0  0  0  0
   16.3077    1.5493   19.0983 H   0  0  0  0  0  0  0  0  0  0  0  0
   17.2481    2.1430   16.9328 H   0  0  0  0  0  0  0  0  0  0  0  0
   17.4904    4.3012   16.1176 H   0  0  0  0  0  0  0  0  0  0  0  0
   16.2938    4.7483   14.8858 H   0  0  0  0  0  0  0  0  0  0  0  0
   17.1028    3.1674   14.7831 H   0  0  0  0  0  0  0  0  0  0  0  0
  1  2  1  0
  2  3  1  0
  3  4  1  0
  4  5  2  0
  4  6  1  0
  6  7  1  0
  7  8  2  0
  8  9  1  0
  9 10  1  0
 10 11  1  0
  8 12  1  0
 12 13  1  0
 13 14  2  0
 14 15  1  0
 15 16  1  0
 16 17  1  0
 17 18  1  0
 18 19  1  0
 18 20  2  0
 14 21  1  0
 21  3  1  0
 21  7  1  0
  1 22  1  0
  1 23  1  0
  1 24  1  0
  2 25  1  0
  2 26  1  0
  6 27  1  0
  6 28  1  0
 10 29  1  0
 10 30  1  0
 12 31  1  0
 13 32  1  0
 15 33  1  0
 15 34  1  0
 16 35  1  0
 16 36  1  0
 17 37  1  0
 19 38  1  0
 19 39  1  0
 19 40  1  0
M  END
>  <Energy>  (40) 
39.132381597762802

>  <compound_id>  (40) 
3111

>  <target_id>  (40) 
1

>  <reference_id>  (40) 
86

>  <inspiration_ids>  (40) 
[98, 86]

>  <energy_score>  (40) 
-20.826605745695986

>  <distance_score>  (40) 
1.4307210104130494

>  <path>  (40) 
/opt/xchem-fragalysis-2/maxwin/BulkDock/SCRATCH/505734/C3111-P86/C3111-P86.minimised.mol

>  <scratch_subdir>  (40) 
/opt/xchem-fragalysis-2/maxwin/BulkDock/SCRATCH/505734/C3111-P86

>  <fragmenstein_runtime>  (40) 
2.4450361728668213

>  <fragmenstein_outcome>  (40) 
too moved

>  <fragmenstein_mode>  (40) 
expansion

>  <fragmenstein_error>  (40) 


$$$$
C3112-P98
     RDKit          3D

 44 47  0  0  0  0  0  0  0  0999 V2000
   17.1604   -4.8666   16.1734 C   0  0  0  0  0  0  0  0  0  0  0  0
   16.5257   -3.4878   16.2024 C   0  0  0  0  0  0  0  0  0  0  0  0
   15.0844   -3.5146   16.0393 N   0  0  0  0  0  0  0  0  0  0  0  0
   14.4126   -2.6210   15.1617 N   0  0  0  0  0  0  0  0  0  0  0  0
   13.1907   -2.2225   15.8939 C   0  0  0  0  0  0  0  0  0  0  0  0
   12.8904   -3.4694   16.7530 C   0  0  0  0  0  0  0  0  0  0  0  0
   14.2301   -4.0934   16.9702 C   0  0  0  0  0  0  0  0  0  0  0  0
   14.4945   -4.9325   17.8183 O   0  0  0  0  0  0  0  0  0  0  0  0
   13.6127   -1.0007   16.7521 C   0  0  0  0  0  0  0  0  0  0  0  0
   13.7182    0.1984   15.8934 C   0  0  0  0  0  0  0  0  0  0  0  0
   13.0029    0.4045   14.7418 C   0  0  0  0  0  0  0  0  0  0  0  0
   13.2640    1.6457   14.2336 N   0  0  0  0  0  0  0  0  0  0  0  0
   14.0283    2.2369   15.1401 C   0  0  0  0  0  0  0  0  0  0  0  0
   14.4041    3.6763   15.1375 C   0  0  0  0  0  0  0  0  0  0  0  0
   14.1355    4.1937   13.8365 O   0  0  0  0  0  0  0  0  0  0  0  0
   14.3750    1.3642   16.1427 N   0  0  0  0  0  0  0  0  0  0  0  0
   15.1915    1.6727   17.2920 C   0  0  0  0  0  0  0  0  0  0  0  0
   11.9601   -0.5259   14.2253 C   0  0  0  0  0  0  0  0  0  0  0  0
   10.5616    0.0750   14.4378 C   0  0  0  0  0  0  0  0  0  0  0  0
   10.6205    1.1916   15.2386 F   0  0  0  0  0  0  0  0  0  0  0  0
    9.7974   -0.9471   15.2399 C   0  0  0  0  0  0  0  0  0  0  0  0
   10.7807   -1.7557   15.9011 O   0  0  0  0  0  0  0  0  0  0  0  0
   11.9312   -1.8553   15.0217 C   0  0  0  0  0  0  0  0  0  0  0  0
   18.2503   -4.7811   16.2272 H   0  0  0  0  0  0  0  0  0  0  0  0
   16.9044   -5.3968   15.2511 H   0  0  0  0  0  0  0  0  0  0  0  0
   16.8347   -5.4840   17.0152 H   0  0  0  0  0  0  0  0  0  0  0  0
   16.7445   -3.0040   17.1609 H   0  0  0  0  0  0  0  0  0  0  0  0
   16.9593   -2.8749   15.4042 H   0  0  0  0  0  0  0  0  0  0  0  0
   14.9993   -1.8101   14.9486 H   0  0  0  0  0  0  0  0  0  0  0  0
   12.2447   -4.1932   16.2489 H   0  0  0  0  0  0  0  0  0  0  0  0
   12.4866   -3.2071   17.7258 H   0  0  0  0  0  0  0  0  0  0  0  0
   12.8400   -0.7819   17.4739 H   0  0  0  0  0  0  0  0  0  0  0  0
   14.5377   -1.1815   17.3112 H   0  0  0  0  0  0  0  0  0  0  0  0
   15.4669    3.8212   15.3487 H   0  0  0  0  0  0  0  0  0  0  0  0
   13.8066    4.2361   15.8623 H   0  0  0  0  0  0  0  0  0  0  0  0
   13.5084    3.5560   13.4337 H   0  0  0  0  0  0  0  0  0  0  0  0
   14.9921    0.9598   18.0948 H   0  0  0  0  0  0  0  0  0  0  0  0
   14.9501    2.6775   17.6474 H   0  0  0  0  0  0  0  0  0  0  0  0
   16.2394    1.6148   16.9881 H   0  0  0  0  0  0  0  0  0  0  0  0
   12.1529   -0.7396   13.1688 H   0  0  0  0  0  0  0  0  0  0  0  0
   10.0657    0.3884   13.5178 H   0  0  0  0  0  0  0  0  0  0  0  0
    9.1667   -0.4678   15.9944 H   0  0  0  0  0  0  0  0  0  0  0  0
    9.1555   -1.6200   14.6780 H   0  0  0  0  0  0  0  0  0  0  0  0
   11.7142   -2.6811   14.3303 H   0  0  0  0  0  0  0  0  0  0  0  0
  1  2  1  0
  2  3  1  0
  3  4  1  0
  4  5  1  0
  5  6  1  0
  6  7  1  0
  7  8  2  0
  5  9  1  0
  9 10  1  0
 10 11  2  0
 11 12  1  0
 12 13  2  0
 13 14  1  0
 14 15  1  0
 13 16  1  0
 16 17  1  0
 11 18  1  0
 18 19  1  0
 19 20  1  0
 19 21  1  0
 21 22  1  0
 22 23  1  0
  7  3  1  0
 16 10  1  0
 23 18  1  0
 23  5  1  0
  1 24  1  0
  1 25  1  0
  1 26  1  0
  2 27  1  0
  2 28  1  0
  4 29  1  0
  6 30  1  0
  6 31  1  0
  9 32  1  0
  9 33  1  0
 14 34  1  0
 14 35  1  0
 15 36  1  0
 17 37  1  0
 17 38  1  0
 17 39  1  0
 18 40  1  0
 19 41  1  0
 21 42  1  0
 21 43  1  0
 23 44  1  0
M  END
>  <Energy>  (41) 
99.988913175782329

>  <compound_id>  (41) 
3112

>  <target_id>  (41) 
1

>  <reference_id>  (41) 
98

>  <inspiration_ids>  (41) 
[98, 93]

>  <energy_score>  (41) 
-44.5889336936055

>  <distance_score>  (41) 
1.2571007279429312

>  <path>  (41) 
/opt/xchem-fragalysis-2/maxwin/BulkDock/SCRATCH/505734/C3112-P98/C3112-P98.minimised.mol

>  <scratch_subdir>  (41) 
/opt/xchem-fragalysis-2/maxwin/BulkDock/SCRATCH/505734/C3112-P98

>  <fragmenstein_runtime>  (41) 
3.4156272411346436

>  <fragmenstein_outcome>  (41) 
too moved

>  <fragmenstein_mode>  (41) 
expansion

>  <fragmenstein_error>  (41) 


$$$$
C3112-P93
     RDKit          3D

 44 47  0  0  0  0  0  0  0  0999 V2000
   17.1691   -4.6975   16.2725 C   0  0  0  0  0  0  0  0  0  0  0  0
   16.4864   -3.3453   16.1656 C   0  0  0  0  0  0  0  0  0  0  0  0
   15.0429   -3.4394   16.0325 N   0  0  0  0  0  0  0  0  0  0  0  0
   14.3285   -2.5842   15.1417 N   0  0  0  0  0  0  0  0  0  0  0  0
   13.1278   -2.1714   15.9041 C   0  0  0  0  0  0  0  0  0  0  0  0
   12.8558   -3.4170   16.7661 C   0  0  0  0  0  0  0  0  0  0  0  0
   14.2296   -3.9247   17.0536 C   0  0  0  0  0  0  0  0  0  0  0  0
   14.5456   -4.5912   18.0270 O   0  0  0  0  0  0  0  0  0  0  0  0
   13.5618   -0.9589   16.7763 C   0  0  0  0  0  0  0  0  0  0  0  0
   13.6500    0.2520   15.9375 C   0  0  0  0  0  0  0  0  0  0  0  0
   12.9340    0.4666   14.7893 C   0  0  0  0  0  0  0  0  0  0  0  0
   13.1995    1.7086   14.2865 N   0  0  0  0  0  0  0  0  0  0  0  0
   13.9611    2.2954   15.1983 C   0  0  0  0  0  0  0  0  0  0  0  0
   14.3479    3.7318   15.1971 C   0  0  0  0  0  0  0  0  0  0  0  0
   14.1011    4.2462   13.8901 O   0  0  0  0  0  0  0  0  0  0  0  0
   14.2952    1.4208   16.2032 N   0  0  0  0  0  0  0  0  0  0  0  0
   15.0883    1.7308   17.3688 C   0  0  0  0  0  0  0  0  0  0  0  0
   11.9059   -0.4684   14.2539 C   0  0  0  0  0  0  0  0  0  0  0  0
   10.4992    0.1258   14.4166 C   0  0  0  0  0  0  0  0  0  0  0  0
   10.5294    1.2994   15.1292 F   0  0  0  0  0  0  0  0  0  0  0  0
    9.7407   -0.8526   15.2799 C   0  0  0  0  0  0  0  0  0  0  0  0
   10.7222   -1.6593   15.9510 O   0  0  0  0  0  0  0  0  0  0  0  0
   11.8584   -1.7933   15.0560 C   0  0  0  0  0  0  0  0  0  0  0  0
   18.2565   -4.5721   16.2653 H   0  0  0  0  0  0  0  0  0  0  0  0
   16.8930   -5.3447   15.4340 H   0  0  0  0  0  0  0  0  0  0  0  0
   16.9035   -5.2118   17.2000 H   0  0  0  0  0  0  0  0  0  0  0  0
   16.7058   -2.7496   17.0587 H   0  0  0  0  0  0  0  0  0  0  0  0
   16.8832   -2.8139   15.2932 H   0  0  0  0  0  0  0  0  0  0  0  0
   14.8966   -1.7706   14.8892 H   0  0  0  0  0  0  0  0  0  0  0  0
   12.2891   -4.1927   16.2429 H   0  0  0  0  0  0  0  0  0  0  0  0
   12.3858   -3.1703   17.7116 H   0  0  0  0  0  0  0  0  0  0  0  0
   12.8031   -0.7613   17.5220 H   0  0  0  0  0  0  0  0  0  0  0  0
   14.5000   -1.1408   17.3123 H   0  0  0  0  0  0  0  0  0  0  0  0
   15.4086    3.8697   15.4227 H   0  0  0  0  0  0  0  0  0  0  0  0
   13.7441    4.2984   15.9114 H   0  0  0  0  0  0  0  0  0  0  0  0
   13.4728    3.6127   13.4829 H   0  0  0  0  0  0  0  0  0  0  0  0
   14.8842    1.0087   18.1623 H   0  0  0  0  0  0  0  0  0  0  0  0
   14.8273    2.7297   17.7272 H   0  0  0  0  0  0  0  0  0  0  0  0
   16.1419    1.6885   17.0824 H   0  0  0  0  0  0  0  0  0  0  0  0
   12.1395   -0.6861   13.2093 H   0  0  0  0  0  0  0  0  0  0  0  0
   10.0045    0.3587   13.4725 H   0  0  0  0  0  0  0  0  0  0  0  0
    9.1394   -0.3361   16.0342 H   0  0  0  0  0  0  0  0  0  0  0  0
    9.0699   -1.5241   14.7469 H   0  0  0  0  0  0  0  0  0  0  0  0
   11.6150   -2.6203   14.3753 H   0  0  0  0  0  0  0  0  0  0  0  0
  1  2  1  0
  2  3  1  0
  3  4  1  0
  4  5  1  0
  5  6  1  0
  6  7  1  0
  7  8  2  0
  5  9  1  0
  9 10  1  0
 10 11  2  0
 11 12  1  0
 12 13  2  0
 13 14  1  0
 14 15  1  0
 13 16  1  0
 16 17  1  0
 11 18  1  0
 18 19  1  0
 19 20  1  0
 19 21  1  0
 21 22  1  0
 22 23  1  0
  7  3  1  0
 16 10  1  0
 23 18  1  0
 23  5  1  0
  1 24  1  0
  1 25  1  0
  1 26  1  0
  2 27  1  0
  2 28  1  0
  4 29  1  0
  6 30  1  0
  6 31  1  0
  9 32  1  0
  9 33  1  0
 14 34  1  0
 14 35  1  0
 15 36  1  0
 17 37  1  0
 17 38  1  0
 17 39  1  0
 18 40  1  0
 19 41  1  0
 21 42  1  0
 21 43  1  0
 23 44  1  0
M  END
>  <Energy>  (42) 
98.307994885942264

>  <compound_id>  (42) 
3112

>  <target_id>  (42) 
1

>  <reference_id>  (42) 
93

>  <inspiration_ids>  (42) 
[98, 93]

>  <energy_score>  (42) 
-46.26985198344653

>  <distance_score>  (42) 
1.2735559239694207

>  <path>  (42) 
/opt/xchem-fragalysis-2/maxwin/BulkDock/SCRATCH/505734/C3112-P93/C3112-P93.minimised.mol

>  <scratch_subdir>  (42) 
/opt/xchem-fragalysis-2/maxwin/BulkDock/SCRATCH/505734/C3112-P93

>  <fragmenstein_runtime>  (42) 
3.2366414070129395

>  <fragmenstein_outcome>  (42) 
too moved

>  <fragmenstein_mode>  (42) 
expansion

>  <fragmenstein_error>  (42) 


$$$$
C3113-P98
     RDKit          3D

 31 31  0  0  0  0  0  0  0  0999 V2000
   17.1105   -4.6469   16.1154 C   0  0  0  0  0  0  0  0  0  0  0  0
   16.3915   -3.4121   16.6239 C   0  0  0  0  0  0  0  0  0  0  0  0
   14.9606   -3.4862   16.4314 N   0  0  0  0  0  0  0  0  0  0  0  0
   14.3049   -2.7026   15.5017 N   0  0  0  0  0  0  0  0  0  0  0  0
   13.0282   -2.9093   15.6945 C   0  0  0  0  0  0  0  0  0  0  0  0
   11.8838   -2.3254   14.8893 C   0  0  0  0  0  0  0  0  0  0  0  0
   11.9204   -2.7329   13.5930 F   0  0  0  0  0  0  0  0  0  0  0  0
   10.6870   -2.7533   15.3758 F   0  0  0  0  0  0  0  0  0  0  0  0
   11.8459   -0.8623   14.9299 N   0  0  0  0  0  0  0  0  0  0  0  0
   10.6378   -0.3458   14.2921 O   0  0  0  0  0  0  0  0  0  0  0  0
   12.9843   -0.2493   14.2248 C   0  0  0  0  0  0  0  0  0  0  0  0
   14.1500    0.5529   15.3583 S   0  0  0  0  0  0  0  0  0  0  0  0
   15.7283    0.2944   14.5985 C   0  0  0  0  0  0  0  0  0  0  0  0
   14.1320   -0.1684   16.6186 O   0  0  0  0  0  0  0  0  0  0  0  0
   13.8959    1.9835   15.3377 O   0  0  0  0  0  0  0  0  0  0  0  0
   12.7502   -3.8677   16.8054 C   0  0  0  0  0  0  0  0  0  0  0  0
   14.1215   -4.2961   17.1902 C   0  0  0  0  0  0  0  0  0  0  0  0
   14.4125   -5.1629   17.9962 O   0  0  0  0  0  0  0  0  0  0  0  0
   18.1889   -4.5518   16.2751 H   0  0  0  0  0  0  0  0  0  0  0  0
   16.7698   -5.5511   16.6292 H   0  0  0  0  0  0  0  0  0  0  0  0
   16.9349   -4.7857   15.0446 H   0  0  0  0  0  0  0  0  0  0  0  0
   16.7697   -2.5170   16.1194 H   0  0  0  0  0  0  0  0  0  0  0  0
   16.5793   -3.3014   17.6976 H   0  0  0  0  0  0  0  0  0  0  0  0
   10.2307   -1.0726   13.7530 H   0  0  0  0  0  0  0  0  0  0  0  0
   12.6616    0.5408   13.5356 H   0  0  0  0  0  0  0  0  0  0  0  0
   13.5500   -0.9710   13.6265 H   0  0  0  0  0  0  0  0  0  0  0  0
   15.7289    0.7790   13.6202 H   0  0  0  0  0  0  0  0  0  0  0  0
   15.9144   -0.7741   14.4940 H   0  0  0  0  0  0  0  0  0  0  0  0
   16.4919    0.7439   15.2368 H   0  0  0  0  0  0  0  0  0  0  0  0
   12.1384   -4.7015   16.4723 H   0  0  0  0  0  0  0  0  0  0  0  0
   12.3164   -3.3272   17.6359 H   0  0  0  0  0  0  0  0  0  0  0  0
  1  2  1  0
  2  3  1  0
  3  4  1  0
  4  5  2  0
  5  6  1  0
  6  7  1  0
  6  8  1  0
  6  9  1  0
  9 10  1  0
  9 11  1  0
 11 12  1  0
 12 13  1  0
 12 14  2  0
 12 15  2  0
  5 16  1  0
 16 17  1  0
 17 18  2  0
 17  3  1  0
  1 19  1  0
  1 20  1  0
  1 21  1  0
  2 22  1  0
  2 23  1  0
 10 24  1  0
 11 25  1  0
 11 26  1  0
 13 27  1  0
 13 28  1  0
 13 29  1  0
 16 30  1  0
 16 31  1  0
M  END
>  <Energy>  (43) 
123.63854250918367

>  <compound_id>  (43) 
3113

>  <target_id>  (43) 
1

>  <reference_id>  (43) 
98

>  <inspiration_ids>  (43) 
[98, 97]

>  <energy_score>  (43) 
-29.0238820208902

>  <distance_score>  (43) 
0.7341468808763648

>  <path>  (43) 
/opt/xchem-fragalysis-2/maxwin/BulkDock/SCRATCH/505734/C3113-P98/C3113-P98.minimised.mol

>  <scratch_subdir>  (43) 
/opt/xchem-fragalysis-2/maxwin/BulkDock/SCRATCH/505734/C3113-P98

>  <fragmenstein_runtime>  (43) 
5.002758502960205

>  <fragmenstein_outcome>  (43) 
acceptable

>  <fragmenstein_mode>  (43) 
expansion

>  <fragmenstein_error>  (43) 


$$$$
C3113-P97
     RDKit          3D

 31 31  0  0  0  0  0  0  0  0999 V2000
   17.1169   -4.6382   16.1750 C   0  0  0  0  0  0  0  0  0  0  0  0
   16.4105   -3.3944   16.6799 C   0  0  0  0  0  0  0  0  0  0  0  0
   14.9789   -3.4642   16.4944 N   0  0  0  0  0  0  0  0  0  0  0  0
   14.3266   -2.7038   15.5435 N   0  0  0  0  0  0  0  0  0  0  0  0
   13.0494   -2.9096   15.7333 C   0  0  0  0  0  0  0  0  0  0  0  0
   11.9077   -2.3285   14.9239 C   0  0  0  0  0  0  0  0  0  0  0  0
   11.9527   -2.7288   13.6266 F   0  0  0  0  0  0  0  0  0  0  0  0
   10.7108   -2.7632   15.4020 F   0  0  0  0  0  0  0  0  0  0  0  0
   11.8691   -0.8657   14.9767 N   0  0  0  0  0  0  0  0  0  0  0  0
   10.6486   -0.3447   14.3683 O   0  0  0  0  0  0  0  0  0  0  0  0
   12.9940   -0.2496   14.2520 C   0  0  0  0  0  0  0  0  0  0  0  0
   14.1748    0.5559   15.3664 S   0  0  0  0  0  0  0  0  0  0  0  0
   15.7440    0.2820   14.5936 C   0  0  0  0  0  0  0  0  0  0  0  0
   14.1646   -0.1545   16.6334 O   0  0  0  0  0  0  0  0  0  0  0  0
   13.9286    1.9876   15.3371 O   0  0  0  0  0  0  0  0  0  0  0  0
   12.7682   -3.8578   16.8504 C   0  0  0  0  0  0  0  0  0  0  0  0
   14.1366   -4.2429   17.2801 C   0  0  0  0  0  0  0  0  0  0  0  0
   14.4168   -5.0613   18.1388 O   0  0  0  0  0  0  0  0  0  0  0  0
   18.1962   -4.5544   16.3351 H   0  0  0  0  0  0  0  0  0  0  0  0
   16.7649   -5.5372   16.6908 H   0  0  0  0  0  0  0  0  0  0  0  0
   16.9404   -4.7778   15.1044 H   0  0  0  0  0  0  0  0  0  0  0  0
   16.7909   -2.5052   16.1669 H   0  0  0  0  0  0  0  0  0  0  0  0
   16.6052   -3.2780   17.7518 H   0  0  0  0  0  0  0  0  0  0  0  0
   10.2371   -1.0704   13.8312 H   0  0  0  0  0  0  0  0  0  0  0  0
   12.6580    0.5378   13.5661 H   0  0  0  0  0  0  0  0  0  0  0  0
   13.5541   -0.9706   13.6475 H   0  0  0  0  0  0  0  0  0  0  0  0
   15.7375    0.7577   13.6109 H   0  0  0  0  0  0  0  0  0  0  0  0
   15.9237   -0.7884   14.4973 H   0  0  0  0  0  0  0  0  0  0  0  0
   16.5162    0.7334   15.2202 H   0  0  0  0  0  0  0  0  0  0  0  0
   12.1849   -4.7155   16.5243 H   0  0  0  0  0  0  0  0  0  0  0  0
   12.3058   -3.3152   17.6594 H   0  0  0  0  0  0  0  0  0  0  0  0
  1  2  1  0
  2  3  1  0
  3  4  1  0
  4  5  2  0
  5  6  1  0
  6  7  1  0
  6  8  1  0
  6  9  1  0
  9 10  1  0
  9 11  1  0
 11 12  1  0
 12 13  1  0
 12 14  2  0
 12 15  2  0
  5 16  1  0
 16 17  1  0
 17 18  2  0
 17  3  1  0
  1 19  1  0
  1 20  1  0
  1 21  1  0
  2 22  1  0
  2 23  1  0
 10 24  1  0
 11 25  1  0
 11 26  1  0
 13 27  1  0
 13 28  1  0
 13 29  1  0
 16 30  1  0
 16 31  1  0
M  END
>  <Energy>  (44) 
123.33123748498927

>  <compound_id>  (44) 
3113

>  <target_id>  (44) 
1

>  <reference_id>  (44) 
97

>  <inspiration_ids>  (44) 
[98, 97]

>  <energy_score>  (44) 
-29.33118704508462

>  <distance_score>  (44) 
0.7366726568532421

>  <path>  (44) 
/opt/xchem-fragalysis-2/maxwin/BulkDock/SCRATCH/505734/C3113-P97/C3113-P97.minimised.mol

>  <scratch_subdir>  (44) 
/opt/xchem-fragalysis-2/maxwin/BulkDock/SCRATCH/505734/C3113-P97

>  <fragmenstein_runtime>  (44) 
5.357769250869751

>  <fragmenstein_outcome>  (44) 
acceptable

>  <fragmenstein_mode>  (44) 
expansion

>  <fragmenstein_error>  (44) 


$$$$
C3114-P98
     RDKit          3D

 40 40  0  0  0  0  0  0  0  0999 V2000
   17.1395   -4.3648   16.6644 C   0  0  0  0  0  0  0  0  0  0  0  0
   16.3960   -3.4869   17.6674 C   0  0  0  0  0  0  0  0  0  0  0  0
   14.9715   -3.4518   17.3989 N   0  0  0  0  0  0  0  0  0  0  0  0
   14.1862   -4.5676   17.5913 C   0  0  0  0  0  0  0  0  0  0  0  0
   14.4842   -5.5808   18.1999 O   0  0  0  0  0  0  0  0  0  0  0  0
   12.8978   -4.3481   16.8410 C   0  0  0  0  0  0  0  0  0  0  0  0
   13.1591   -3.0414   16.1720 C   0  0  0  0  0  0  0  0  0  0  0  0
   12.1428   -2.4284   15.2850 C   0  0  0  0  0  0  0  0  0  0  0  0
   11.9353   -3.1581   14.1646 F   0  0  0  0  0  0  0  0  0  0  0  0
   12.5089   -1.1820   14.8745 F   0  0  0  0  0  0  0  0  0  0  0  0
   10.9406   -2.2881   15.8949 F   0  0  0  0  0  0  0  0  0  0  0  0
   14.3166   -2.5489   16.6262 C   0  0  0  0  0  0  0  0  0  0  0  0
   14.6353   -1.2581   16.4943 N   0  0  0  0  0  0  0  0  0  0  0  0
   15.4045   -0.3127   17.4499 C   0  0  0  0  0  0  0  0  0  0  0  0
   15.9282   -0.5306   18.4327 O   0  0  0  0  0  0  0  0  0  0  0  0
   15.1643    1.0091   16.7329 N   0  0  0  0  0  0  0  0  0  0  0  0
   15.4485    2.3615   17.1443 C   0  0  0  0  0  0  0  0  0  0  0  0
   16.9326    2.5915   17.3978 C   0  0  0  0  0  0  0  0  0  0  0  0
   14.6035    2.7189   18.3908 C   0  0  0  0  0  0  0  0  0  0  0  0
   13.1931    2.7428   18.1480 O   0  0  0  0  0  0  0  0  0  0  0  0
   14.9271    3.1528   15.9481 C   0  0  0  0  0  0  0  0  0  0  0  0
   13.6827    2.5386   15.5457 O   0  0  0  0  0  0  0  0  0  0  0  0
   16.9994   -3.9953   15.6430 H   0  0  0  0  0  0  0  0  0  0  0  0
   18.2115   -4.3659   16.8848 H   0  0  0  0  0  0  0  0  0  0  0  0
   16.7868   -5.4004   16.6959 H   0  0  0  0  0  0  0  0  0  0  0  0
   16.5419   -3.8911   18.6756 H   0  0  0  0  0  0  0  0  0  0  0  0
   16.8365   -2.4926   17.6374 H   0  0  0  0  0  0  0  0  0  0  0  0
   12.0758   -4.2840   17.5373 H   0  0  0  0  0  0  0  0  0  0  0  0
   12.7582   -5.1769   16.1700 H   0  0  0  0  0  0  0  0  0  0  0  0
   14.2227   -0.7233   15.7478 H   0  0  0  0  0  0  0  0  0  0  0  0
   14.5930    0.8524   15.9177 H   0  0  0  0  0  0  0  0  0  0  0  0
   17.5330    2.3049   16.5270 H   0  0  0  0  0  0  0  0  0  0  0  0
   17.2871    1.9966   18.2467 H   0  0  0  0  0  0  0  0  0  0  0  0
   17.1373    3.6452   17.6159 H   0  0  0  0  0  0  0  0  0  0  0  0
   14.8746    3.7142   18.7599 H   0  0  0  0  0  0  0  0  0  0  0  0
   14.7840    2.0070   19.2035 H   0  0  0  0  0  0  0  0  0  0  0  0
   13.0567    2.3270   17.2719 H   0  0  0  0  0  0  0  0  0  0  0  0
   14.7523    4.2071   16.1869 H   0  0  0  0  0  0  0  0  0  0  0  0
   15.6077    3.0914   15.0913 H   0  0  0  0  0  0  0  0  0  0  0  0
   13.3201    3.1076   14.8397 H   0  0  0  0  0  0  0  0  0  0  0  0
  1  2  1  0
  2  3  1  0
  3  4  1  0
  4  5  2  0
  4  6  1  0
  6  7  1  0
  7  8  1  0
  8  9  1  0
  8 10  1  0
  8 11  1  0
  7 12  2  0
 12 13  1  0
 13 14  1  0
 14 15  2  0
 14 16  1  0
 16 17  1  0
 17 18  1  0
 17 19  1  0
 19 20  1  0
 17 21  1  0
 21 22  1  0
 12  3  1  0
  1 23  1  0
  1 24  1  0
  1 25  1  0
  2 26  1  0
  2 27  1  0
  6 28  1  0
  6 29  1  0
 13 30  1  0
 16 31  1  0
 18 32  1  0
 18 33  1  0
 18 34  1  0
 19 35  1  0
 19 36  1  0
 20 37  1  0
 21 38  1  0
 21 39  1  0
 22 40  1  0
M  END
>  <Energy>  (45) 
-32.065849449362773

>  <compound_id>  (45) 
3114

>  <target_id>  (45) 
1

>  <reference_id>  (45) 
98

>  <inspiration_ids>  (45) 
[98, 103]

>  <energy_score>  (45) 
-18.436373980179305

>  <distance_score>  (45) 
2.101550381535841

>  <path>  (45) 
/opt/xchem-fragalysis-2/maxwin/BulkDock/SCRATCH/505734/C3114-P98/C3114-P98.minimised.mol

>  <scratch_subdir>  (45) 
/opt/xchem-fragalysis-2/maxwin/BulkDock/SCRATCH/505734/C3114-P98

>  <fragmenstein_runtime>  (45) 
5.756880521774292

>  <fragmenstein_outcome>  (45) 
too moved

>  <fragmenstein_mode>  (45) 
expansion

>  <fragmenstein_error>  (45) 


$$$$
C3114-P103
     RDKit          3D

 40 40  0  0  0  0  0  0  0  0999 V2000
   17.1526   -3.1647   17.1694 C   0  0  0  0  0  0  0  0  0  0  0  0
   16.0323   -2.7471   18.1105 C   0  0  0  0  0  0  0  0  0  0  0  0
   14.7324   -2.9874   17.5206 N   0  0  0  0  0  0  0  0  0  0  0  0
   14.0837   -4.2018   17.6735 C   0  0  0  0  0  0  0  0  0  0  0  0
   14.4462   -5.1635   18.3330 O   0  0  0  0  0  0  0  0  0  0  0  0
   12.8346   -4.1418   16.8385 C   0  0  0  0  0  0  0  0  0  0  0  0
   12.9113   -2.7587   16.2716 C   0  0  0  0  0  0  0  0  0  0  0  0
   11.8776   -2.3702   15.2811 C   0  0  0  0  0  0  0  0  0  0  0  0
   11.3859   -3.4705   14.6526 F   0  0  0  0  0  0  0  0  0  0  0  0
   12.3533   -1.5676   14.3027 F   0  0  0  0  0  0  0  0  0  0  0  0
   10.8159   -1.7714   15.8762 F   0  0  0  0  0  0  0  0  0  0  0  0
   13.9991   -2.1348   16.7353 C   0  0  0  0  0  0  0  0  0  0  0  0
   14.3601   -0.8443   16.6005 N   0  0  0  0  0  0  0  0  0  0  0  0
   13.5639    0.3527   16.2158 C   0  0  0  0  0  0  0  0  0  0  0  0
   12.4511    0.4379   15.8637 O   0  0  0  0  0  0  0  0  0  0  0  0
   14.5532    1.4046   16.5011 N   0  0  0  0  0  0  0  0  0  0  0  0
   14.4201    2.8550   16.5261 C   0  0  0  0  0  0  0  0  0  0  0  0
   14.2325    3.4118   15.1123 C   0  0  0  0  0  0  0  0  0  0  0  0
   13.1934    3.1975   17.4014 C   0  0  0  0  0  0  0  0  0  0  0  0
   13.1126    4.5773   17.7333 O   0  0  0  0  0  0  0  0  0  0  0  0
   15.7205    3.4120   17.1385 C   0  0  0  0  0  0  0  0  0  0  0  0
   16.0350    2.7234   18.3582 O   0  0  0  0  0  0  0  0  0  0  0  0
   17.0771   -4.2267   16.9130 H   0  0  0  0  0  0  0  0  0  0  0  0
   17.1155   -2.5924   16.2366 H   0  0  0  0  0  0  0  0  0  0  0  0
   18.1265   -2.9935   17.6380 H   0  0  0  0  0  0  0  0  0  0  0  0
   16.1110   -3.3320   19.0345 H   0  0  0  0  0  0  0  0  0  0  0  0
   16.1303   -1.6939   18.3922 H   0  0  0  0  0  0  0  0  0  0  0  0
   11.9549   -4.2827   17.4532 H   0  0  0  0  0  0  0  0  0  0  0  0
   12.9030   -4.9122   16.0859 H   0  0  0  0  0  0  0  0  0  0  0  0
   15.3064   -0.5708   16.7725 H   0  0  0  0  0  0  0  0  0  0  0  0
   15.3892    0.9841   16.8626 H   0  0  0  0  0  0  0  0  0  0  0  0
   13.3209    3.0199   14.6472 H   0  0  0  0  0  0  0  0  0  0  0  0
   15.0703    3.1306   14.4638 H   0  0  0  0  0  0  0  0  0  0  0  0
   14.1640    4.5050   15.1201 H   0  0  0  0  0  0  0  0  0  0  0  0
   12.2662    2.9180   16.8879 H   0  0  0  0  0  0  0  0  0  0  0  0
   13.2290    2.6373   18.3433 H   0  0  0  0  0  0  0  0  0  0  0  0
   12.2586    4.6652   18.2034 H   0  0  0  0  0  0  0  0  0  0  0  0
   15.6729    4.4883   17.3349 H   0  0  0  0  0  0  0  0  0  0  0  0
   16.5653    3.2379   16.4621 H   0  0  0  0  0  0  0  0  0  0  0  0
   15.4867    3.1392   19.0494 H   0  0  0  0  0  0  0  0  0  0  0  0
  1  2  1  0
  2  3  1  0
  3  4  1  0
  4  5  2  0
  4  6  1  0
  6  7  1  0
  7  8  1  0
  8  9  1  0
  8 10  1  0
  8 11  1  0
  7 12  2  0
 12 13  1  0
 13 14  1  0
 14 15  2  0
 14 16  1  0
 16 17  1  0
 17 18  1  0
 17 19  1  0
 19 20  1  0
 17 21  1  0
 21 22  1  0
 12  3  1  0
  1 23  1  0
  1 24  1  0
  1 25  1  0
  2 26  1  0
  2 27  1  0
  6 28  1  0
  6 29  1  0
 13 30  1  0
 16 31  1  0
 18 32  1  0
 18 33  1  0
 18 34  1  0
 19 35  1  0
 19 36  1  0
 20 37  1  0
 21 38  1  0
 21 39  1  0
 22 40  1  0
M  END
>  <Energy>  (46) 
-48.117188206521902

>  <compound_id>  (46) 
3114

>  <target_id>  (46) 
1

>  <reference_id>  (46) 
103

>  <inspiration_ids>  (46) 
[98, 103]

>  <energy_score>  (46) 
-46.856077045762845

>  <distance_score>  (46) 
1.5510911641683598

>  <path>  (46) 
/opt/xchem-fragalysis-2/maxwin/BulkDock/SCRATCH/505734/C3114-P103/C3114-P103.minimised.mol

>  <scratch_subdir>  (46) 
/opt/xchem-fragalysis-2/maxwin/BulkDock/SCRATCH/505734/C3114-P103

>  <fragmenstein_runtime>  (46) 
5.143599987030029

>  <fragmenstein_outcome>  (46) 
too moved

>  <fragmenstein_mode>  (46) 
expansion

>  <fragmenstein_error>  (46) 


$$$$
C3115-P98
     RDKit          3D

 26 26  0  0  0  0  0  0  0  0999 V2000
   17.2167   -4.4669   16.1290 C   0  0  0  0  0  0  0  0  0  0  0  0
   16.5517   -3.3717   16.9422 C   0  0  0  0  0  0  0  0  0  0  0  0
   15.1227   -3.3307   16.7272 N   0  0  0  0  0  0  0  0  0  0  0  0
   14.5550   -2.4571   15.8206 N   0  0  0  0  0  0  0  0  0  0  0  0
   13.2864   -2.7519   15.7990 C   0  0  0  0  0  0  0  0  0  0  0  0
   12.2252   -2.1235   14.9220 C   0  0  0  0  0  0  0  0  0  0  0  0
   11.6812   -3.0617   14.0996 F   0  0  0  0  0  0  0  0  0  0  0  0
   11.1893   -1.6840   15.6841 F   0  0  0  0  0  0  0  0  0  0  0  0
   12.6137   -1.0604   14.0777 O   0  0  0  0  0  0  0  0  0  0  0  0
   12.5707    0.2016   14.7125 C   0  0  0  0  0  0  0  0  0  0  0  0
   11.1898    0.8089   14.9668 C   0  0  0  0  0  0  0  0  0  0  0  0
   10.9872    1.6631   15.8206 O   0  0  0  0  0  0  0  0  0  0  0  0
   10.1973    0.3418   14.1826 O   0  0  0  0  0  0  0  0  0  0  0  0
   12.9023   -3.8274   16.7643 C   0  0  0  0  0  0  0  0  0  0  0  0
   14.2349   -4.2622   17.2626 C   0  0  0  0  0  0  0  0  0  0  0  0
   14.4616   -5.2223   17.9776 O   0  0  0  0  0  0  0  0  0  0  0  0
   17.0485   -4.3133   15.0580 H   0  0  0  0  0  0  0  0  0  0  0  0
   18.2960   -4.4731   16.3089 H   0  0  0  0  0  0  0  0  0  0  0  0
   16.8220   -5.4543   16.3892 H   0  0  0  0  0  0  0  0  0  0  0  0
   16.7276   -3.5559   18.0078 H   0  0  0  0  0  0  0  0  0  0  0  0
   16.9733   -2.3930   16.6903 H   0  0  0  0  0  0  0  0  0  0  0  0
   13.1015    0.9062   14.0637 H   0  0  0  0  0  0  0  0  0  0  0  0
   13.1087    0.1554   15.6665 H   0  0  0  0  0  0  0  0  0  0  0  0
   10.4082   -0.4159   13.5839 H   0  0  0  0  0  0  0  0  0  0  0  0
   12.3446   -3.3897   17.5831 H   0  0  0  0  0  0  0  0  0  0  0  0
   12.3597   -4.6359   16.2857 H   0  0  0  0  0  0  0  0  0  0  0  0
  1  2  1  0
  2  3  1  0
  3  4  1  0
  4  5  2  0
  5  6  1  0
  6  7  1  0
  6  8  1  0
  6  9  1  0
  9 10  1  0
 10 11  1  0
 11 12  2  0
 11 13  1  0
  5 14  1  0
 14 15  1  0
 15 16  2  0
 15  3  1  0
  1 17  1  0
  1 18  1  0
  1 19  1  0
  2 20  1  0
  2 21  1  0
 10 22  1  0
 10 23  1  0
 13 24  1  0
 14 25  1  0
 14 26  1  0
M  END
>  <Energy>  (47) 
32.783355036739955

>  <compound_id>  (47) 
3115

>  <target_id>  (47) 
1

>  <reference_id>  (47) 
98

>  <inspiration_ids>  (47) 
[98, 111]

>  <energy_score>  (47) 
-31.5669743973412

>  <distance_score>  (47) 
2.4975592311956194

>  <path>  (47) 
/opt/xchem-fragalysis-2/maxwin/BulkDock/SCRATCH/505734/C3115-P98/C3115-P98.minimised.mol

>  <scratch_subdir>  (47) 
/opt/xchem-fragalysis-2/maxwin/BulkDock/SCRATCH/505734/C3115-P98

>  <fragmenstein_runtime>  (47) 
24.157707929611206

>  <fragmenstein_outcome>  (47) 
too moved

>  <fragmenstein_mode>  (47) 
expansion

>  <fragmenstein_error>  (47) 


$$$$
C3115-P111
     RDKit          3D

 26 26  0  0  0  0  0  0  0  0999 V2000
   17.2578   -4.2902   16.5272 C   0  0  0  0  0  0  0  0  0  0  0  0
   16.4817   -3.3347   17.4165 C   0  0  0  0  0  0  0  0  0  0  0  0
   15.1095   -3.1852   16.9807 N   0  0  0  0  0  0  0  0  0  0  0  0
   14.8010   -2.3831   15.9142 N   0  0  0  0  0  0  0  0  0  0  0  0
   13.5186   -2.5063   15.7237 C   0  0  0  0  0  0  0  0  0  0  0  0
   12.7197   -1.8215   14.6316 C   0  0  0  0  0  0  0  0  0  0  0  0
   11.9363   -2.7243   13.9786 F   0  0  0  0  0  0  0  0  0  0  0  0
   11.8650   -0.9146   15.1751 F   0  0  0  0  0  0  0  0  0  0  0  0
   13.4935   -1.1248   13.6635 O   0  0  0  0  0  0  0  0  0  0  0  0
   14.2767   -2.0157   12.8907 C   0  0  0  0  0  0  0  0  0  0  0  0
   14.9063   -1.5677   11.5744 C   0  0  0  0  0  0  0  0  0  0  0  0
   14.8232   -0.4586   11.0747 O   0  0  0  0  0  0  0  0  0  0  0  0
   15.5780   -2.5929   10.9669 O   0  0  0  0  0  0  0  0  0  0  0  0
   12.8536   -3.4217   16.6980 C   0  0  0  0  0  0  0  0  0  0  0  0
   14.0230   -3.8690   17.5158 C   0  0  0  0  0  0  0  0  0  0  0  0
   14.0078   -4.6686   18.4349 O   0  0  0  0  0  0  0  0  0  0  0  0
   17.2578   -3.9487   15.4867 H   0  0  0  0  0  0  0  0  0  0  0  0
   18.2966   -4.3626   16.8636 H   0  0  0  0  0  0  0  0  0  0  0  0
   16.8243   -5.2929   16.5482 H   0  0  0  0  0  0  0  0  0  0  0  0
   16.4862   -3.7079   18.4463 H   0  0  0  0  0  0  0  0  0  0  0  0
   16.9501   -2.3447   17.4127 H   0  0  0  0  0  0  0  0  0  0  0  0
   13.6491   -2.8559   12.5938 H   0  0  0  0  0  0  0  0  0  0  0  0
   15.1162   -2.3688   13.4959 H   0  0  0  0  0  0  0  0  0  0  0  0
   15.6034   -3.4225   11.4998 H   0  0  0  0  0  0  0  0  0  0  0  0
   12.1628   -2.8483   17.3016 H   0  0  0  0  0  0  0  0  0  0  0  0
   12.3726   -4.2592   16.1968 H   0  0  0  0  0  0  0  0  0  0  0  0
  1  2  1  0
  2  3  1  0
  3  4  1  0
  4  5  2  0
  5  6  1  0
  6  7  1  0
  6  8  1  0
  6  9  1  0
  9 10  1  0
 10 11  1  0
 11 12  2  0
 11 13  1  0
  5 14  1  0
 14 15  1  0
 15 16  2  0
 15  3  1  0
  1 17  1  0
  1 18  1  0
  1 19  1  0
  2 20  1  0
  2 21  1  0
 10 22  1  0
 10 23  1  0
 13 24  1  0
 14 25  1  0
 14 26  1  0
M  END
>  <Energy>  (48) 
40.939726748545056

>  <compound_id>  (48) 
3115

>  <target_id>  (48) 
1

>  <reference_id>  (48) 
111

>  <inspiration_ids>  (48) 
[98, 111]

>  <energy_score>  (48) 
-23.41060268553578

>  <distance_score>  (48) 
2.0155948163591253

>  <path>  (48) 
/opt/xchem-fragalysis-2/maxwin/BulkDock/SCRATCH/505734/C3115-P111/C3115-P111.minimised.mol

>  <scratch_subdir>  (48) 
/opt/xchem-fragalysis-2/maxwin/BulkDock/SCRATCH/505734/C3115-P111

>  <fragmenstein_runtime>  (48) 
24.382954597473145

>  <fragmenstein_outcome>  (48) 
too moved

>  <fragmenstein_mode>  (48) 
expansion

>  <fragmenstein_error>  (48) 


$$$$
C3116-P98
     RDKit          3D

 39 40  0  0  0  0  0  0  0  0999 V2000
   16.0713   -1.8988   17.3756 C   0  0  0  0  0  0  0  0  0  0  0  0
   14.7699   -1.3813   17.9728 C   0  0  0  0  0  0  0  0  0  0  0  0
   13.6650   -1.8642   17.2144 N   0  0  0  0  0  0  0  0  0  0  0  0
   13.3839   -3.2374   17.3078 C   0  0  0  0  0  0  0  0  0  0  0  0
   13.8713   -4.0557   18.0732 O   0  0  0  0  0  0  0  0  0  0  0  0
   12.4140   -3.5570   16.2290 C   0  0  0  0  0  0  0  0  0  0  0  0
   12.2302   -2.2112   15.6233 C   0  0  0  0  0  0  0  0  0  0  0  0
   11.2906   -2.0989   14.5156 C   0  0  0  0  0  0  0  0  0  0  0  0
   11.4424   -3.1158   13.6422 F   0  0  0  0  0  0  0  0  0  0  0  0
   10.0393   -2.1331   15.0248 F   0  0  0  0  0  0  0  0  0  0  0  0
   11.4553   -0.9382   13.8468 F   0  0  0  0  0  0  0  0  0  0  0  0
   12.9568   -1.2484   16.2062 C   0  0  0  0  0  0  0  0  0  0  0  0
   12.8597    0.2260   15.8195 C   0  0  0  0  0  0  0  0  0  0  0  0
   13.7361    1.1998   16.4682 N   0  0  0  0  0  0  0  0  0  0  0  0
   13.1270    2.5429   16.5064 C   0  0  0  0  0  0  0  0  0  0  0  0
   14.0043    3.4926   17.3192 C   0  0  0  0  0  0  0  0  0  0  0  0
   15.4279    3.5430   16.7765 C   0  0  0  0  0  0  0  0  0  0  0  0
   16.2442    4.2674   17.6916 O   0  0  0  0  0  0  0  0  0  0  0  0
   15.9936    2.1422   16.5773 C   0  0  0  0  0  0  0  0  0  0  0  0
   15.0309    1.2796   15.7713 C   0  0  0  0  0  0  0  0  0  0  0  0
   16.1494   -1.6836   16.3062 H   0  0  0  0  0  0  0  0  0  0  0  0
   16.9236   -1.4344   17.8819 H   0  0  0  0  0  0  0  0  0  0  0  0
   16.1723   -2.9822   17.4962 H   0  0  0  0  0  0  0  0  0  0  0  0
   14.6864   -1.7630   18.9983 H   0  0  0  0  0  0  0  0  0  0  0  0
   14.7653   -0.2972   18.0579 H   0  0  0  0  0  0  0  0  0  0  0  0
   11.5006   -3.9924   16.6211 H   0  0  0  0  0  0  0  0  0  0  0  0
   12.9148   -4.2288   15.5531 H   0  0  0  0  0  0  0  0  0  0  0  0
   12.9837    0.3241   14.7339 H   0  0  0  0  0  0  0  0  0  0  0  0
   11.8157    0.5007   16.0258 H   0  0  0  0  0  0  0  0  0  0  0  0
   12.1448    2.4998   16.9917 H   0  0  0  0  0  0  0  0  0  0  0  0
   12.9723    2.9369   15.4936 H   0  0  0  0  0  0  0  0  0  0  0  0
   14.0203    3.1768   18.3713 H   0  0  0  0  0  0  0  0  0  0  0  0
   13.5715    4.5003   17.3203 H   0  0  0  0  0  0  0  0  0  0  0  0
   15.4330    4.0841   15.8226 H   0  0  0  0  0  0  0  0  0  0  0  0
   17.1530    4.2658   17.3450 H   0  0  0  0  0  0  0  0  0  0  0  0
   16.9619    2.2042   16.0661 H   0  0  0  0  0  0  0  0  0  0  0  0
   16.2026    1.6798   17.5510 H   0  0  0  0  0  0  0  0  0  0  0  0
   14.9131    1.6933   14.7605 H   0  0  0  0  0  0  0  0  0  0  0  0
   15.4728    0.2883   15.6497 H   0  0  0  0  0  0  0  0  0  0  0  0
  1  2  1  0
  2  3  1  0
  3  4  1  0
  4  5  2  0
  4  6  1  0
  6  7  1  0
  7  8  1  0
  8  9  1  0
  8 10  1  0
  8 11  1  0
  7 12  2  0
 12 13  1  0
 13 14  1  0
 14 15  1  0
 15 16  1  0
 16 17  1  0
 17 18  1  0
 17 19  1  0
 19 20  1  0
 12  3  1  0
 20 14  1  0
  1 21  1  0
  1 22  1  0
  1 23  1  0
  2 24  1  0
  2 25  1  0
  6 26  1  0
  6 27  1  0
 13 28  1  0
 13 29  1  0
 15 30  1  0
 15 31  1  0
 16 32  1  0
 16 33  1  0
 17 34  1  0
 18 35  1  0
 19 36  1  0
 19 37  1  0
 20 38  1  0
 20 39  1  0
M  END
>  <Energy>  (49) 
6.2782209283919173

>  <compound_id>  (49) 
3116

>  <target_id>  (49) 
1

>  <reference_id>  (49) 
98

>  <inspiration_ids>  (49) 
[98, 113]

>  <energy_score>  (49) 
-21.534855632116674

>  <distance_score>  (49) 
1.4536576809700033

>  <path>  (49) 
/opt/xchem-fragalysis-2/maxwin/BulkDock/SCRATCH/505734/C3116-P98/C3116-P98.minimised.mol

>  <scratch_subdir>  (49) 
/opt/xchem-fragalysis-2/maxwin/BulkDock/SCRATCH/505734/C3116-P98

>  <fragmenstein_runtime>  (49) 
4.336933612823486

>  <fragmenstein_outcome>  (49) 
too moved

>  <fragmenstein_mode>  (49) 
expansion

>  <fragmenstein_error>  (49) 


$$$$
C3116-P113
     RDKit          3D

 39 40  0  0  0  0  0  0  0  0999 V2000
   15.8565   -1.9379   17.2746 C   0  0  0  0  0  0  0  0  0  0  0  0
   14.6210   -1.3598   17.9559 C   0  0  0  0  0  0  0  0  0  0  0  0
   13.4406   -1.7800   17.2736 N   0  0  0  0  0  0  0  0  0  0  0  0
   13.1130   -3.1420   17.3713 C   0  0  0  0  0  0  0  0  0  0  0  0
   13.6009   -3.9848   18.1093 O   0  0  0  0  0  0  0  0  0  0  0  0
   12.0740   -3.4045   16.3431 C   0  0  0  0  0  0  0  0  0  0  0  0
   11.9779   -2.0778   15.6864 C   0  0  0  0  0  0  0  0  0  0  0  0
   11.0923   -1.9815   14.5290 C   0  0  0  0  0  0  0  0  0  0  0  0
   11.3138   -2.9948   13.6648 F   0  0  0  0  0  0  0  0  0  0  0  0
    9.8153   -2.0453   14.9659 F   0  0  0  0  0  0  0  0  0  0  0  0
   11.2576   -0.8178   13.8651 F   0  0  0  0  0  0  0  0  0  0  0  0
   12.7488   -1.1454   16.2614 C   0  0  0  0  0  0  0  0  0  0  0  0
   12.7320    0.3217   15.8511 C   0  0  0  0  0  0  0  0  0  0  0  0
   13.6638    1.2484   16.4873 N   0  0  0  0  0  0  0  0  0  0  0  0
   13.0938    2.6029   16.6077 C   0  0  0  0  0  0  0  0  0  0  0  0
   14.0323    3.5037   17.4067 C   0  0  0  0  0  0  0  0  0  0  0  0
   15.4271    3.5390   16.7938 C   0  0  0  0  0  0  0  0  0  0  0  0
   16.3058    4.2258   17.6798 O   0  0  0  0  0  0  0  0  0  0  0  0
   15.9494    2.1309   16.5340 C   0  0  0  0  0  0  0  0  0  0  0  0
   14.9327    1.3140   15.7459 C   0  0  0  0  0  0  0  0  0  0  0  0
   15.9110   -3.0256   17.3860 H   0  0  0  0  0  0  0  0  0  0  0  0
   15.8750   -1.7208   16.2030 H   0  0  0  0  0  0  0  0  0  0  0  0
   16.7611   -1.5183   17.7261 H   0  0  0  0  0  0  0  0  0  0  0  0
   14.6760   -0.2774   18.0463 H   0  0  0  0  0  0  0  0  0  0  0  0
   14.5841   -1.7428   18.9837 H   0  0  0  0  0  0  0  0  0  0  0  0
   11.1515   -3.7508   16.7745 H   0  0  0  0  0  0  0  0  0  0  0  0
   12.4326   -4.1512   15.6749 H   0  0  0  0  0  0  0  0  0  0  0  0
   12.8488    0.3993   14.7631 H   0  0  0  0  0  0  0  0  0  0  0  0
   11.7054    0.6543   16.0618 H   0  0  0  0  0  0  0  0  0  0  0  0
   12.1365    2.5622   17.1397 H   0  0  0  0  0  0  0  0  0  0  0  0
   12.8984    3.0374   15.6188 H   0  0  0  0  0  0  0  0  0  0  0  0
   14.0930    3.1519   18.4456 H   0  0  0  0  0  0  0  0  0  0  0  0
   13.6249    4.5204   17.4627 H   0  0  0  0  0  0  0  0  0  0  0  0
   15.3956    4.1018   15.8531 H   0  0  0  0  0  0  0  0  0  0  0  0
   17.1975    4.2015   17.2931 H   0  0  0  0  0  0  0  0  0  0  0  0
   16.8970    2.1837   15.9844 H   0  0  0  0  0  0  0  0  0  0  0  0
   16.1866    1.6371   17.4855 H   0  0  0  0  0  0  0  0  0  0  0  0
   14.7874    1.7570   14.7513 H   0  0  0  0  0  0  0  0  0  0  0  0
   15.3427    0.3143   15.5839 H   0  0  0  0  0  0  0  0  0  0  0  0
  1  2  1  0
  2  3  1  0
  3  4  1  0
  4  5  2  0
  4  6  1  0
  6  7  1  0
  7  8  1  0
  8  9  1  0
  8 10  1  0
  8 11  1  0
  7 12  2  0
 12 13  1  0
 13 14  1  0
 14 15  1  0
 15 16  1  0
 16 17  1  0
 17 18  1  0
 17 19  1  0
 19 20  1  0
 12  3  1  0
 20 14  1  0
  1 21  1  0
  1 22  1  0
  1 23  1  0
  2 24  1  0
  2 25  1  0
  6 26  1  0
  6 27  1  0
 13 28  1  0
 13 29  1  0
 15 30  1  0
 15 31  1  0
 16 32  1  0
 16 33  1  0
 17 34  1  0
 18 35  1  0
 19 36  1  0
 19 37  1  0
 20 38  1  0
 20 39  1  0
M  END
>  <Energy>  (50) 
6.3609227576741407

>  <compound_id>  (50) 
3116

>  <target_id>  (50) 
1

>  <reference_id>  (50) 
113

>  <inspiration_ids>  (50) 
[98, 113]

>  <energy_score>  (50) 
-21.45215380283456

>  <distance_score>  (50) 
1.550378107928781

>  <path>  (50) 
/opt/xchem-fragalysis-2/maxwin/BulkDock/SCRATCH/505734/C3116-P113/C3116-P113.minimised.mol

>  <scratch_subdir>  (50) 
/opt/xchem-fragalysis-2/maxwin/BulkDock/SCRATCH/505734/C3116-P113

>  <fragmenstein_runtime>  (50) 
4.332186698913574

>  <fragmenstein_outcome>  (50) 
too moved

>  <fragmenstein_mode>  (50) 
expansion

>  <fragmenstein_error>  (50) 


$$$$
C3119-P98
     RDKit          3D

 33 36  0  0  0  0  0  0  0  0999 V2000
   12.3947   -3.1972   15.9052 O   0  0  0  0  0  0  0  0  0  0  0  0
   13.5942   -2.9318   15.8282 C   0  0  0  0  0  0  0  0  0  0  0  0
   14.0209   -2.0073   14.7493 C   0  0  0  0  0  0  0  0  0  0  0  0
   15.0464   -2.3348   13.8545 C   0  0  0  0  0  0  0  0  0  0  0  0
   15.1528   -1.6592   12.6435 C   0  0  0  0  0  0  0  0  0  0  0  0
   14.2389   -0.6581   12.3398 C   0  0  0  0  0  0  0  0  0  0  0  0
   13.3039   -0.2488   13.2895 C   0  0  0  0  0  0  0  0  0  0  0  0
   13.3224   -0.8117   14.5698 C   0  0  0  0  0  0  0  0  0  0  0  0
   13.0500    0.1023   15.7669 C   0  0  0  0  0  0  0  0  0  0  0  0
   11.7496    0.4560   15.9054 F   0  0  0  0  0  0  0  0  0  0  0  0
   13.9321    1.3801   15.6500 C   0  0  0  0  0  0  0  0  0  0  0  0
   15.3316    0.9333   16.1114 C   0  0  0  0  0  0  0  0  0  0  0  0
   15.0752   -0.2350   16.9394 N   0  0  0  0  0  0  0  0  0  0  0  0
   13.6403   -0.3611   17.1156 C   0  0  0  0  0  0  0  0  0  0  0  0
   16.0598   -1.1973   17.1051 C   0  0  0  0  0  0  0  0  0  0  0  0
   17.2489   -0.9030   17.0018 O   0  0  0  0  0  0  0  0  0  0  0  0
   15.6607   -2.5822   17.3497 C   0  0  0  0  0  0  0  0  0  0  0  0
   16.3501   -3.4638   18.1539 C   0  0  0  0  0  0  0  0  0  0  0  0
   15.6733   -4.6370   18.0942 N   0  0  0  0  0  0  0  0  0  0  0  0
   14.6026   -4.6110   17.2962 N   0  0  0  0  0  0  0  0  0  0  0  0
   14.6026   -3.3669   16.7918 C   0  0  0  0  0  0  0  0  0  0  0  0
   15.7278   -3.1620   14.0476 H   0  0  0  0  0  0  0  0  0  0  0  0
   15.9129   -1.9505   11.9225 H   0  0  0  0  0  0  0  0  0  0  0  0
   14.3068   -0.1398   11.3900 H   0  0  0  0  0  0  0  0  0  0  0  0
   12.6915    0.6274   13.0812 H   0  0  0  0  0  0  0  0  0  0  0  0
   13.9581    1.8539   14.6648 H   0  0  0  0  0  0  0  0  0  0  0  0
   13.5449    2.1459   16.3368 H   0  0  0  0  0  0  0  0  0  0  0  0
   15.8329    1.7029   16.7059 H   0  0  0  0  0  0  0  0  0  0  0  0
   15.9701    0.6572   15.2655 H   0  0  0  0  0  0  0  0  0  0  0  0
   13.3945    0.3539   17.9069 H   0  0  0  0  0  0  0  0  0  0  0  0
   13.3089   -1.3230   17.4748 H   0  0  0  0  0  0  0  0  0  0  0  0
   17.2427   -3.3454   18.7531 H   0  0  0  0  0  0  0  0  0  0  0  0
   15.8929   -5.5024   18.5781 H   0  0  0  0  0  0  0  0  0  0  0  0
  1  2  2  0
  2  3  1  0
  3  4  2  0
  4  5  1  0
  5  6  2  0
  6  7  1  0
  7  8  2  0
  8  9  1  0
  9 10  1  0
  9 11  1  0
 11 12  1  0
 12 13  1  0
 13 14  1  0
 13 15  1  0
 15 16  2  0
 15 17  1  0
 17 18  2  0
 18 19  1  0
 19 20  1  0
 20 21  2  0
 21  2  1  0
  8  3  1  0
 14  9  1  0
 21 17  1  0
  4 22  1  0
  5 23  1  0
  6 24  1  0
  7 25  1  0
 11 26  1  0
 11 27  1  0
 12 28  1  0
 12 29  1  0
 14 30  1  0
 14 31  1  0
 18 32  1  0
 19 33  1  0
M  END
>  <Energy>  (51) 
133.29876795320888

>  <compound_id>  (51) 
3119

>  <target_id>  (51) 
1

>  <reference_id>  (51) 
98

>  <inspiration_ids>  (51) 
[98, 122]

>  <energy_score>  (51) 
-49.31365076016198

>  <distance_score>  (51) 
2.5611469026470033

>  <path>  (51) 
/opt/xchem-fragalysis-2/maxwin/BulkDock/SCRATCH/505734/C3119-P98/C3119-P98.minimised.mol

>  <scratch_subdir>  (51) 
/opt/xchem-fragalysis-2/maxwin/BulkDock/SCRATCH/505734/C3119-P98

>  <fragmenstein_runtime>  (51) 
1.3809287548065186

>  <fragmenstein_outcome>  (51) 
too moved

>  <fragmenstein_mode>  (51) 
expansion

>  <fragmenstein_error>  (51) 


$$$$
C3119-P122
     RDKit          3D

 33 36  0  0  0  0  0  0  0  0999 V2000
   12.3178   -3.4133   15.5344 O   0  0  0  0  0  0  0  0  0  0  0  0
   13.4377   -3.0232   15.8547 C   0  0  0  0  0  0  0  0  0  0  0  0
   14.2588   -2.2780   14.8736 C   0  0  0  0  0  0  0  0  0  0  0  0
   15.5500   -2.7410   14.5745 C   0  0  0  0  0  0  0  0  0  0  0  0
   16.1888   -2.3028   13.4173 C   0  0  0  0  0  0  0  0  0  0  0  0
   15.5248   -1.4443   12.5479 C   0  0  0  0  0  0  0  0  0  0  0  0
   14.2761   -0.9269   12.8960 C   0  0  0  0  0  0  0  0  0  0  0  0
   13.6810   -1.2468   14.1229 C   0  0  0  0  0  0  0  0  0  0  0  0
   12.6223   -0.3142   14.6785 C   0  0  0  0  0  0  0  0  0  0  0  0
   11.4955   -0.2647   13.9278 F   0  0  0  0  0  0  0  0  0  0  0  0
   13.1955    1.1289   14.7665 C   0  0  0  0  0  0  0  0  0  0  0  0
   14.0046    1.1601   16.0656 C   0  0  0  0  0  0  0  0  0  0  0  0
   13.4917    0.0430   16.8431 N   0  0  0  0  0  0  0  0  0  0  0  0
   12.2927   -0.4652   16.1678 C   0  0  0  0  0  0  0  0  0  0  0  0
   14.3831   -0.5544   17.7360 C   0  0  0  0  0  0  0  0  0  0  0  0
   15.2452    0.1388   18.2781 O   0  0  0  0  0  0  0  0  0  0  0  0
   14.3615   -1.9955   17.9937 C   0  0  0  0  0  0  0  0  0  0  0  0
   14.8467   -2.5854   19.1440 C   0  0  0  0  0  0  0  0  0  0  0  0
   14.6843   -3.9239   18.9894 N   0  0  0  0  0  0  0  0  0  0  0  0
   14.1985   -4.2770   17.7956 N   0  0  0  0  0  0  0  0  0  0  0  0
   13.9738   -3.1010   17.1915 C   0  0  0  0  0  0  0  0  0  0  0  0
   16.0160   -3.5253   15.1688 H   0  0  0  0  0  0  0  0  0  0  0  0
   17.1644   -2.7023   13.1513 H   0  0  0  0  0  0  0  0  0  0  0  0
   15.9928   -1.1535   11.6105 H   0  0  0  0  0  0  0  0  0  0  0  0
   13.8188   -0.1907   12.2366 H   0  0  0  0  0  0  0  0  0  0  0  0
   12.3619    1.8416   14.8372 H   0  0  0  0  0  0  0  0  0  0  0  0
   13.7908    1.4557   13.9090 H   0  0  0  0  0  0  0  0  0  0  0  0
   13.8536    2.0915   16.6198 H   0  0  0  0  0  0  0  0  0  0  0  0
   15.0743    1.0263   15.8690 H   0  0  0  0  0  0  0  0  0  0  0  0
   11.4721    0.2326   16.3704 H   0  0  0  0  0  0  0  0  0  0  0  0
   11.9331   -1.4118   16.5473 H   0  0  0  0  0  0  0  0  0  0  0  0
   15.2663   -2.1614   20.0467 H   0  0  0  0  0  0  0  0  0  0  0  0
   14.8971   -4.6545   19.6616 H   0  0  0  0  0  0  0  0  0  0  0  0
  1  2  2  0
  2  3  1  0
  3  4  2  0
  4  5  1  0
  5  6  2  0
  6  7  1  0
  7  8  2  0
  8  9  1  0
  9 10  1  0
  9 11  1  0
 11 12  1  0
 12 13  1  0
 13 14  1  0
 13 15  1  0
 15 16  2  0
 15 17  1  0
 17 18  2  0
 18 19  1  0
 19 20  1  0
 20 21  2  0
 21  2  1  0
  8  3  1  0
 14  9  1  0
 21 17  1  0
  4 22  1  0
  5 23  1  0
  6 24  1  0
  7 25  1  0
 11 26  1  0
 11 27  1  0
 12 28  1  0
 12 29  1  0
 14 30  1  0
 14 31  1  0
 18 32  1  0
 19 33  1  0
M  END
>  <Energy>  (52) 
126.28854703262211

>  <compound_id>  (52) 
3119

>  <target_id>  (52) 
1

>  <reference_id>  (52) 
122

>  <inspiration_ids>  (52) 
[98, 122]

>  <energy_score>  (52) 
-56.32387168074695

>  <distance_score>  (52) 
2.5967412344029133

>  <path>  (52) 
/opt/xchem-fragalysis-2/maxwin/BulkDock/SCRATCH/505734/C3119-P122/C3119-P122.minimised.mol

>  <scratch_subdir>  (52) 
/opt/xchem-fragalysis-2/maxwin/BulkDock/SCRATCH/505734/C3119-P122

>  <fragmenstein_runtime>  (52) 
1.3779752254486084

>  <fragmenstein_outcome>  (52) 
too moved

>  <fragmenstein_mode>  (52) 
expansion

>  <fragmenstein_error>  (52) 


$$$$
C3127-P99
     RDKit          3D

 35 37  0  0  0  0  0  0  0  0999 V2000
   -9.5674    1.7709    8.6695 C   0  0  0  0  0  0  0  0  0  0  0  0
   -9.0994    0.4609    9.2074 C   0  0  0  0  0  0  0  0  0  0  0  0
   -8.4164   -0.4579    8.6309 N   0  0  0  0  0  0  0  0  0  0  0  0
   -7.9776   -0.4506    7.2378 C   0  0  0  0  0  0  0  0  0  0  0  0
   -8.5518   -1.7251    6.6325 C   0  0  0  0  0  0  0  0  0  0  0  0
   -9.8799   -1.8116    6.2414 C   0  0  0  0  0  0  0  0  0  0  0  0
  -10.1352   -3.0947    5.8821 N   0  0  0  0  0  0  0  0  0  0  0  0
   -9.0681   -3.8750    5.9719 N   0  0  0  0  0  0  0  0  0  0  0  0
   -8.0875   -3.0566    6.3767 C   0  0  0  0  0  0  0  0  0  0  0  0
   -6.7437   -3.6806    6.4302 C   0  0  0  0  0  0  0  0  0  0  0  0
   -5.6758   -2.8621    5.7456 C   0  0  0  0  0  0  0  0  0  0  0  0
   -4.9302   -1.8929    6.6756 C   0  0  0  0  0  0  0  0  0  0  0  0
   -5.7307   -1.2465    7.7987 C   0  0  0  0  0  0  0  0  0  0  0  0
   -6.5389   -0.2254    7.1684 N   0  0  0  0  0  0  0  0  0  0  0  0
   -5.9393    0.0818    5.8731 C   0  0  0  0  0  0  0  0  0  0  0  0
   -4.5852   -0.6494    5.8935 C   0  0  0  0  0  0  0  0  0  0  0  0
   -4.0653   -0.8960    4.6003 O   0  0  0  0  0  0  0  0  0  0  0  0
   -8.9995    2.0895    7.7954 H   0  0  0  0  0  0  0  0  0  0  0  0
  -10.6270    1.6890    8.4143 H   0  0  0  0  0  0  0  0  0  0  0  0
   -9.4587    2.5277    9.4514 H   0  0  0  0  0  0  0  0  0  0  0  0
   -9.4146    0.2508   10.2411 H   0  0  0  0  0  0  0  0  0  0  0  0
   -8.4506    0.3783    6.6980 H   0  0  0  0  0  0  0  0  0  0  0  0
  -10.6730   -1.0795    6.2476 H   0  0  0  0  0  0  0  0  0  0  0  0
  -11.0178   -3.4955    5.5621 H   0  0  0  0  0  0  0  0  0  0  0  0
   -6.7939   -4.6439    5.9068 H   0  0  0  0  0  0  0  0  0  0  0  0
   -6.4887   -3.9247    7.4527 H   0  0  0  0  0  0  0  0  0  0  0  0
   -6.1178   -2.3669    4.8720 H   0  0  0  0  0  0  0  0  0  0  0  0
   -4.9151   -3.5090    5.3030 H   0  0  0  0  0  0  0  0  0  0  0  0
   -4.0356   -2.3901    7.0682 H   0  0  0  0  0  0  0  0  0  0  0  0
   -6.3312   -1.9314    8.3726 H   0  0  0  0  0  0  0  0  0  0  0  0
   -5.0459   -0.7621    8.5069 H   0  0  0  0  0  0  0  0  0  0  0  0
   -6.5560   -0.2425    5.0268 H   0  0  0  0  0  0  0  0  0  0  0  0
   -5.7942    1.1607    5.7564 H   0  0  0  0  0  0  0  0  0  0  0  0
   -3.8459   -0.1189    6.4905 H   0  0  0  0  0  0  0  0  0  0  0  0
   -3.2853   -1.4615    4.7184 H   0  0  0  0  0  0  0  0  0  0  0  0
  1  2  1  0
  2  3  2  3
  3  4  1  0
  4  5  1  0
  5  6  2  0
  6  7  1  0
  7  8  1  0
  8  9  2  0
  9 10  1  0
 10 11  1  0
 11 12  1  0
 12 13  1  0
 13 14  1  0
 14 15  1  0
 15 16  1  0
 16 17  1  0
 14  4  1  0
  9  5  1  0
 16 12  1  0
  1 18  1  0
  1 19  1  0
  1 20  1  0
  2 21  1  0
  4 22  1  0
  6 23  1  0
  7 24  1  0
 10 25  1  0
 10 26  1  0
 11 27  1  0
 11 28  1  0
 12 29  1  0
 13 30  1  0
 13 31  1  0
 15 32  1  0
 15 33  1  0
 16 34  1  0
 17 35  1  0
M  END
>  <Energy>  (53) 
39.367188620511243

>  <compound_id>  (53) 
3127

>  <target_id>  (53) 
1

>  <reference_id>  (53) 
99

>  <inspiration_ids>  (53) 
[99, 37]

>  <energy_score>  (53) 
-23.74104849086001

>  <distance_score>  (53) 
1.8390510447432629

>  <path>  (53) 
/opt/xchem-fragalysis-2/maxwin/BulkDock/SCRATCH/505734/C3127-P99/C3127-P99.minimised.mol

>  <scratch_subdir>  (53) 
/opt/xchem-fragalysis-2/maxwin/BulkDock/SCRATCH/505734/C3127-P99

>  <fragmenstein_runtime>  (53) 
55.29399132728577

>  <fragmenstein_outcome>  (53) 
too moved

>  <fragmenstein_mode>  (53) 
expansion

>  <fragmenstein_error>  (53) 


$$$$
C3127-P37
     RDKit          3D

 35 37  0  0  0  0  0  0  0  0999 V2000
  -10.5320    0.7399   10.2011 C   0  0  0  0  0  0  0  0  0  0  0  0
   -9.9700    0.4838    8.8434 C   0  0  0  0  0  0  0  0  0  0  0  0
   -9.1684   -0.5020    8.6122 N   0  0  0  0  0  0  0  0  0  0  0  0
   -8.6522   -0.4896    7.2340 C   0  0  0  0  0  0  0  0  0  0  0  0
   -7.9275   -1.7542    6.9166 C   0  0  0  0  0  0  0  0  0  0  0  0
   -8.4871   -2.8772    6.3307 C   0  0  0  0  0  0  0  0  0  0  0  0
   -7.4904   -3.7828    6.1833 N   0  0  0  0  0  0  0  0  0  0  0  0
   -6.3028   -3.3187    6.5937 N   0  0  0  0  0  0  0  0  0  0  0  0
   -6.5488   -2.0789    7.0613 C   0  0  0  0  0  0  0  0  0  0  0  0
   -5.4474   -1.3439    7.7971 C   0  0  0  0  0  0  0  0  0  0  0  0
   -4.7988    0.0082    7.4890 C   0  0  0  0  0  0  0  0  0  0  0  0
   -5.6231    1.2829    7.4079 C   0  0  0  0  0  0  0  0  0  0  0  0
   -6.9764    1.1382    8.0495 C   0  0  0  0  0  0  0  0  0  0  0  0
   -7.8434    0.6837    6.9675 N   0  0  0  0  0  0  0  0  0  0  0  0
   -7.1531    0.7593    5.6798 C   0  0  0  0  0  0  0  0  0  0  0  0
   -6.0154    1.7100    6.0044 C   0  0  0  0  0  0  0  0  0  0  0  0
   -4.9427    1.7199    5.1002 O   0  0  0  0  0  0  0  0  0  0  0  0
  -11.5919    0.9889   10.1043 H   0  0  0  0  0  0  0  0  0  0  0  0
  -10.4281   -0.1466   10.8296 H   0  0  0  0  0  0  0  0  0  0  0  0
  -10.0102    1.5879   10.6509 H   0  0  0  0  0  0  0  0  0  0  0  0
  -10.2350    1.2259    8.0673 H   0  0  0  0  0  0  0  0  0  0  0  0
   -9.5142   -0.4482    6.5508 H   0  0  0  0  0  0  0  0  0  0  0  0
   -9.5020   -3.1023    6.0337 H   0  0  0  0  0  0  0  0  0  0  0  0
   -7.5475   -4.7272    5.8079 H   0  0  0  0  0  0  0  0  0  0  0  0
   -5.8051   -1.2563    8.8210 H   0  0  0  0  0  0  0  0  0  0  0  0
   -4.5886   -2.0237    7.8007 H   0  0  0  0  0  0  0  0  0  0  0  0
   -4.1181    0.1631    8.3422 H   0  0  0  0  0  0  0  0  0  0  0  0
   -4.1032   -0.0247    6.6577 H   0  0  0  0  0  0  0  0  0  0  0  0
   -5.0530    2.1037    7.8501 H   0  0  0  0  0  0  0  0  0  0  0  0
   -6.9602    0.5260    8.9551 H   0  0  0  0  0  0  0  0  0  0  0  0
   -7.3396    2.1256    8.3607 H   0  0  0  0  0  0  0  0  0  0  0  0
   -6.7600   -0.1785    5.2826 H   0  0  0  0  0  0  0  0  0  0  0  0
   -7.8061    1.1796    4.9074 H   0  0  0  0  0  0  0  0  0  0  0  0
   -6.4036    2.7383    6.0436 H   0  0  0  0  0  0  0  0  0  0  0  0
   -5.2891    2.0417    4.2456 H   0  0  0  0  0  0  0  0  0  0  0  0
  1  2  1  0
  2  3  2  3
  3  4  1  0
  4  5  1  0
  5  6  2  0
  6  7  1  0
  7  8  1  0
  8  9  2  0
  9 10  1  0
 10 11  1  0
 11 12  1  0
 12 13  1  0
 13 14  1  0
 14 15  1  0
 15 16  1  0
 16 17  1  0
 14  4  1  0
  9  5  1  0
 16 12  1  0
  1 18  1  0
  1 19  1  0
  1 20  1  0
  2 21  1  0
  4 22  1  0
  6 23  1  0
  7 24  1  0
 10 25  1  0
 10 26  1  0
 11 27  1  0
 11 28  1  0
 12 29  1  0
 13 30  1  0
 13 31  1  0
 15 32  1  0
 15 33  1  0
 16 34  1  0
 17 35  1  0
M  END
>  <Energy>  (54) 
39.886092743922788

>  <compound_id>  (54) 
3127

>  <target_id>  (54) 
1

>  <reference_id>  (54) 
37

>  <inspiration_ids>  (54) 
[99, 37]

>  <energy_score>  (54) 
-23.222144367449346

>  <distance_score>  (54) 
2.357715395166156

>  <path>  (54) 
/opt/xchem-fragalysis-2/maxwin/BulkDock/SCRATCH/505734/C3127-P37/C3127-P37.minimised.mol

>  <scratch_subdir>  (54) 
/opt/xchem-fragalysis-2/maxwin/BulkDock/SCRATCH/505734/C3127-P37

>  <fragmenstein_runtime>  (54) 
54.915833711624146

>  <fragmenstein_outcome>  (54) 
too moved

>  <fragmenstein_mode>  (54) 
expansion

>  <fragmenstein_error>  (54) 


$$$$
C3130-P99
     RDKit          3D

 45 49  0  0  0  0  0  0  0  0999 V2000
  -10.1453    2.5923    9.1160 F   0  0  0  0  0  0  0  0  0  0  0  0
  -10.3280    1.2602    8.9379 C   0  0  0  0  0  0  0  0  0  0  0  0
  -11.3901    0.8753    9.6682 F   0  0  0  0  0  0  0  0  0  0  0  0
  -10.5345    0.9553    7.4606 C   0  0  0  0  0  0  0  0  0  0  0  0
   -9.1184    0.8737    7.0228 C   0  0  0  0  0  0  0  0  0  0  0  0
   -8.5811    1.2559    5.8627 C   0  0  0  0  0  0  0  0  0  0  0  0
   -9.1079    1.8230    4.7333 N   0  0  0  0  0  0  0  0  0  0  0  0
   -8.1512    2.2438    4.0107 N   0  0  0  0  0  0  0  0  0  0  0  0
   -6.9578    1.9362    4.6322 C   0  0  0  0  0  0  0  0  0  0  0  0
   -7.1437    1.2735    5.7749 C   0  0  0  0  0  0  0  0  0  0  0  0
   -6.2827    0.7004    6.8196 C   0  0  0  0  0  0  0  0  0  0  0  0
   -4.9726    0.2767    6.5546 N   0  0  0  0  0  0  0  0  0  0  0  0
   -4.2266   -0.5605    7.5459 C   0  0  0  0  0  0  0  0  0  0  0  0
   -4.1377   -2.0226    7.0435 C   0  0  0  0  0  0  0  0  0  0  0  0
   -5.2239   -2.5205    6.1567 N   0  0  0  0  0  0  0  0  0  0  0  0
   -6.4472   -2.7654    6.9335 C   0  0  0  0  0  0  0  0  0  0  0  0
   -7.6868   -3.0787    6.1794 C   0  0  0  0  0  0  0  0  0  0  0  0
   -7.8395   -3.4644    4.8352 C   0  0  0  0  0  0  0  0  0  0  0  0
   -9.1126   -3.5955    4.4682 N   0  0  0  0  0  0  0  0  0  0  0  0
   -9.7880   -3.4417    5.6211 N   0  0  0  0  0  0  0  0  0  0  0  0
   -8.9793   -3.1058    6.6708 C   0  0  0  0  0  0  0  0  0  0  0  0
   -5.3770   -1.6008    5.0171 C   0  0  0  0  0  0  0  0  0  0  0  0
   -4.6636   -0.2602    5.1930 C   0  0  0  0  0  0  0  0  0  0  0  0
   -6.9366    0.4759    7.9875 C   0  0  0  0  0  0  0  0  0  0  0  0
   -8.3084    0.5506    8.1150 N   0  0  0  0  0  0  0  0  0  0  0  0
   -9.0702    0.5086    9.3484 C   0  0  0  0  0  0  0  0  0  0  0  0
  -11.0457   -0.0026    7.3208 H   0  0  0  0  0  0  0  0  0  0  0  0
  -11.0943    1.7496    6.9596 H   0  0  0  0  0  0  0  0  0  0  0  0
   -6.0247    2.2433    4.1895 H   0  0  0  0  0  0  0  0  0  0  0  0
   -3.2115   -0.1593    7.6489 H   0  0  0  0  0  0  0  0  0  0  0  0
   -4.6494   -0.5386    8.5506 H   0  0  0  0  0  0  0  0  0  0  0  0
   -3.9265   -2.7117    7.8549 H   0  0  0  0  0  0  0  0  0  0  0  0
   -3.2172   -2.0612    6.4632 H   0  0  0  0  0  0  0  0  0  0  0  0
   -6.2452   -3.6858    7.4761 H   0  0  0  0  0  0  0  0  0  0  0  0
   -6.6501   -1.9891    7.6668 H   0  0  0  0  0  0  0  0  0  0  0  0
   -7.0697   -3.6311    4.0942 H   0  0  0  0  0  0  0  0  0  0  0  0
  -10.8037   -3.5416    5.5924 H   0  0  0  0  0  0  0  0  0  0  0  0
   -9.3904   -2.9119    7.6513 H   0  0  0  0  0  0  0  0  0  0  0  0
   -6.4189   -1.3789    4.7748 H   0  0  0  0  0  0  0  0  0  0  0  0
   -4.9622   -2.0934    4.1290 H   0  0  0  0  0  0  0  0  0  0  0  0
   -3.5857   -0.4206    5.0710 H   0  0  0  0  0  0  0  0  0  0  0  0
   -4.9269    0.4262    4.3881 H   0  0  0  0  0  0  0  0  0  0  0  0
   -6.4760    0.0917    8.8849 H   0  0  0  0  0  0  0  0  0  0  0  0
   -9.3223   -0.5200    9.6115 H   0  0  0  0  0  0  0  0  0  0  0  0
   -8.5533    1.0019   10.1736 H   0  0  0  0  0  0  0  0  0  0  0  0
  1  2  1  0
  2  3  1  0
  2  4  1  0
  4  5  1  0
  5  6  2  0
  6  7  1  0
  7  8  2  0
  8  9  1  0
  9 10  2  0
 10 11  1  0
 11 12  1  0
 12 13  1  0
 13 14  1  0
 14 15  1  0
 15 16  1  0
 16 17  1  0
 17 18  1  0
 18 19  2  0
 19 20  1  0
 20 21  1  0
 15 22  1  0
 22 23  1  0
 11 24  2  0
 24 25  1  0
 25 26  1  0
 26  2  1  0
 25  5  1  0
 10  6  1  0
 23 12  1  0
 21 17  2  0
  4 27  1  0
  4 28  1  0
  9 29  1  0
 13 30  1  0
 13 31  1  0
 14 32  1  0
 14 33  1  0
 16 34  1  0
 16 35  1  0
 18 36  1  0
 20 37  1  0
 21 38  1  0
 22 39  1  0
 22 40  1  0
 23 41  1  0
 23 42  1  0
 24 43  1  0
 26 44  1  0
 26 45  1  0
M  END
>  <Energy>  (55) 
209.8390876814982

>  <compound_id>  (55) 
3130

>  <target_id>  (55) 
1

>  <reference_id>  (55) 
99

>  <inspiration_ids>  (55) 
[99, 69]

>  <energy_score>  (55) 
-26.036838667454504

>  <distance_score>  (55) 
1.8101618036811726

>  <path>  (55) 
/opt/xchem-fragalysis-2/maxwin/BulkDock/SCRATCH/505734/C3130-P99/C3130-P99.minimised.mol

>  <scratch_subdir>  (55) 
/opt/xchem-fragalysis-2/maxwin/BulkDock/SCRATCH/505734/C3130-P99

>  <fragmenstein_runtime>  (55) 
32.809617042541504

>  <fragmenstein_outcome>  (55) 
too moved

>  <fragmenstein_mode>  (55) 
expansion

>  <fragmenstein_error>  (55) 


$$$$
C3130-P69
     RDKit          3D

 45 49  0  0  0  0  0  0  0  0999 V2000
   -9.7227    2.5580    9.2532 F   0  0  0  0  0  0  0  0  0  0  0  0
   -9.8161    1.2714    8.8411 C   0  0  0  0  0  0  0  0  0  0  0  0
  -10.8019    0.6752    9.5388 F   0  0  0  0  0  0  0  0  0  0  0  0
  -10.1015    1.2358    7.3459 C   0  0  0  0  0  0  0  0  0  0  0  0
   -8.7243    1.1861    6.7800 C   0  0  0  0  0  0  0  0  0  0  0  0
   -8.3342    1.3790    5.5169 C   0  0  0  0  0  0  0  0  0  0  0  0
   -8.9751    1.7679    4.3718 N   0  0  0  0  0  0  0  0  0  0  0  0
   -8.1150    1.8584    3.4368 N   0  0  0  0  0  0  0  0  0  0  0  0
   -6.8837    1.4656    3.9231 C   0  0  0  0  0  0  0  0  0  0  0  0
   -6.9537    1.1199    5.2074 C   0  0  0  0  0  0  0  0  0  0  0  0
   -6.0382    0.5156    6.1734 C   0  0  0  0  0  0  0  0  0  0  0  0
   -4.9904   -0.3292    5.7578 N   0  0  0  0  0  0  0  0  0  0  0  0
   -4.1077   -0.9793    6.7577 C   0  0  0  0  0  0  0  0  0  0  0  0
   -4.7754   -2.2019    7.3598 C   0  0  0  0  0  0  0  0  0  0  0  0
   -5.7924   -2.9008    6.5597 N   0  0  0  0  0  0  0  0  0  0  0  0
   -7.1327   -2.3873    6.8635 C   0  0  0  0  0  0  0  0  0  0  0  0
   -8.1822   -3.2405    6.2998 C   0  0  0  0  0  0  0  0  0  0  0  0
   -9.0423   -2.9010    5.2383 C   0  0  0  0  0  0  0  0  0  0  0  0
   -9.8963   -3.8763    4.9499 N   0  0  0  0  0  0  0  0  0  0  0  0
   -9.5624   -4.8493    5.8079 N   0  0  0  0  0  0  0  0  0  0  0  0
   -8.5807   -4.4945    6.6804 C   0  0  0  0  0  0  0  0  0  0  0  0
   -5.4187   -2.7466    5.1405 C   0  0  0  0  0  0  0  0  0  0  0  0
   -5.2061   -1.2897    4.6376 C   0  0  0  0  0  0  0  0  0  0  0  0
   -6.4767    0.5848    7.4632 C   0  0  0  0  0  0  0  0  0  0  0  0
   -7.7908    0.9016    7.7898 N   0  0  0  0  0  0  0  0  0  0  0  0
   -8.4799    0.5633    9.0332 C   0  0  0  0  0  0  0  0  0  0  0  0
  -10.6602    0.3330    7.0783 H   0  0  0  0  0  0  0  0  0  0  0  0
  -10.6527    2.1228    7.0213 H   0  0  0  0  0  0  0  0  0  0  0  0
   -6.0211    1.4091    3.2775 H   0  0  0  0  0  0  0  0  0  0  0  0
   -3.1898   -1.2939    6.2550 H   0  0  0  0  0  0  0  0  0  0  0  0
   -3.8132   -0.3199    7.5814 H   0  0  0  0  0  0  0  0  0  0  0  0
   -5.1936   -1.8842    8.3151 H   0  0  0  0  0  0  0  0  0  0  0  0
   -3.9717   -2.9182    7.5658 H   0  0  0  0  0  0  0  0  0  0  0  0
   -7.3054   -2.3104    7.9415 H   0  0  0  0  0  0  0  0  0  0  0  0
   -7.3213   -1.4209    6.4292 H   0  0  0  0  0  0  0  0  0  0  0  0
   -9.0824   -1.9833    4.6650 H   0  0  0  0  0  0  0  0  0  0  0  0
  -10.0097   -5.7545    5.6861 H   0  0  0  0  0  0  0  0  0  0  0  0
   -8.2088   -5.1611    7.4370 H   0  0  0  0  0  0  0  0  0  0  0  0
   -6.1251   -3.2649    4.4811 H   0  0  0  0  0  0  0  0  0  0  0  0
   -4.4728   -3.2854    4.9894 H   0  0  0  0  0  0  0  0  0  0  0  0
   -4.3304   -1.2566    3.9779 H   0  0  0  0  0  0  0  0  0  0  0  0
   -6.0701   -1.0216    4.0245 H   0  0  0  0  0  0  0  0  0  0  0  0
   -5.9400    0.1678    8.3038 H   0  0  0  0  0  0  0  0  0  0  0  0
   -8.6234   -0.5198    9.1064 H   0  0  0  0  0  0  0  0  0  0  0  0
   -7.9482    0.9108    9.9146 H   0  0  0  0  0  0  0  0  0  0  0  0
  1  2  1  0
  2  3  1  0
  2  4  1  0
  4  5  1  0
  5  6  2  0
  6  7  1  0
  7  8  2  0
  8  9  1  0
  9 10  2  0
 10 11  1  0
 11 12  1  0
 12 13  1  0
 13 14  1  0
 14 15  1  0
 15 16  1  0
 16 17  1  0
 17 18  1  0
 18 19  2  0
 19 20  1  0
 20 21  1  0
 15 22  1  0
 22 23  1  0
 11 24  2  0
 24 25  1  0
 25 26  1  0
 26  2  1  0
 25  5  1  0
 10  6  1  0
 23 12  1  0
 21 17  2  0
  4 27  1  0
  4 28  1  0
  9 29  1  0
 13 30  1  0
 13 31  1  0
 14 32  1  0
 14 33  1  0
 16 34  1  0
 16 35  1  0
 18 36  1  0
 20 37  1  0
 21 38  1  0
 22 39  1  0
 22 40  1  0
 23 41  1  0
 23 42  1  0
 24 43  1  0
 26 44  1  0
 26 45  1  0
M  END
>  <Energy>  (56) 
207.12958251867724

>  <compound_id>  (56) 
3130

>  <target_id>  (56) 
1

>  <reference_id>  (56) 
69

>  <inspiration_ids>  (56) 
[99, 69]

>  <energy_score>  (56) 
-28.7463438302766

>  <distance_score>  (56) 
1.7416061449066156

>  <path>  (56) 
/opt/xchem-fragalysis-2/maxwin/BulkDock/SCRATCH/505734/C3130-P69/C3130-P69.minimised.mol

>  <scratch_subdir>  (56) 
/opt/xchem-fragalysis-2/maxwin/BulkDock/SCRATCH/505734/C3130-P69

>  <fragmenstein_runtime>  (56) 
23.941145420074463

>  <fragmenstein_outcome>  (56) 
too moved

>  <fragmenstein_mode>  (56) 
expansion

>  <fragmenstein_error>  (56) 


$$$$
C3131-P99
     RDKit          3D

 61 66  0  0  0  0  0  0  0  0999 V2000
   -5.1682    1.6899    6.5311 F   0  0  0  0  0  0  0  0  0  0  0  0
   -5.2548    0.5972    7.2901 C   0  0  0  0  0  0  0  0  0  0  0  0
   -3.9719   -0.1525    7.4883 C   0  0  0  0  0  0  0  0  0  0  0  0
   -4.4645   -1.4285    8.0801 C   0  0  0  0  0  0  0  0  0  0  0  0
   -5.9632   -1.4680    7.8127 C   0  0  0  0  0  0  0  0  0  0  0  0
   -6.1982   -0.4375    6.7058 C   0  0  0  0  0  0  0  0  0  0  0  0
   -5.8023   -1.1374    5.3597 C   0  0  0  0  0  0  0  0  0  0  0  0
   -7.0379   -1.6896    4.5818 C   0  0  0  0  0  0  0  0  0  0  0  0
   -7.9341   -2.5760    5.4422 C   0  0  0  0  0  0  0  0  0  0  0  0
   -9.4716   -2.7202    5.2564 C   0  0  0  0  0  0  0  0  0  0  0  0
  -10.0434   -2.7228    6.6517 N   0  0  0  0  0  0  0  0  0  0  0  0
  -10.9081   -1.6840    7.1705 C   0  0  0  0  0  0  0  0  0  0  0  0
  -10.7092   -1.1514    8.4072 C   0  0  0  0  0  0  0  0  0  0  0  0
  -11.5809   -0.1549    8.9956 C   0  0  0  0  0  0  0  0  0  0  0  0
  -12.6321    0.3277    8.3226 C   0  0  0  0  0  0  0  0  0  0  0  0
  -12.8597   -0.1143    6.9997 C   0  0  0  0  0  0  0  0  0  0  0  0
  -13.7349    0.2980    6.1091 N   0  0  0  0  0  0  0  0  0  0  0  0
  -13.4794   -0.3640    4.9431 N   0  0  0  0  0  0  0  0  0  0  0  0
  -12.4652   -1.1722    5.1605 C   0  0  0  0  0  0  0  0  0  0  0  0
  -12.0181   -1.0986    6.4579 N   0  0  0  0  0  0  0  0  0  0  0  0
   -9.0765   -3.4255    7.5828 C   0  0  0  0  0  0  0  0  0  0  0  0
   -8.1669   -4.4185    6.8351 C   0  0  0  0  0  0  0  0  0  0  0  0
   -7.3493   -3.8259    5.8040 O   0  0  0  0  0  0  0  0  0  0  0  0
   -7.7699   -0.4418    4.1234 C   0  0  0  0  0  0  0  0  0  0  0  0
   -8.1160    0.5740    5.2634 C   0  0  0  0  0  0  0  0  0  0  0  0
   -9.6151    0.8078    5.3332 C   0  0  0  0  0  0  0  0  0  0  0  0
   -9.9163    1.5563    4.1298 N   0  0  0  0  0  0  0  0  0  0  0  0
   -8.7650    2.4046    3.8731 N   0  0  0  0  0  0  0  0  0  0  0  0
   -7.7121    1.9932    4.8183 C   0  0  0  0  0  0  0  0  0  0  0  0
   -7.5875    0.2331    6.6701 C   0  0  0  0  0  0  0  0  0  0  0  0
   -5.6193    0.9439    8.2644 H   0  0  0  0  0  0  0  0  0  0  0  0
   -3.2703    0.3750    8.1383 H   0  0  0  0  0  0  0  0  0  0  0  0
   -3.4594   -0.3826    6.5508 H   0  0  0  0  0  0  0  0  0  0  0  0
   -3.9343   -2.2905    7.6624 H   0  0  0  0  0  0  0  0  0  0  0  0
   -4.2942   -1.3925    9.1423 H   0  0  0  0  0  0  0  0  0  0  0  0
   -6.2369   -2.4841    7.5442 H   0  0  0  0  0  0  0  0  0  0  0  0
   -6.5291   -1.1951    8.7109 H   0  0  0  0  0  0  0  0  0  0  0  0
   -5.1020   -1.9670    5.5176 H   0  0  0  0  0  0  0  0  0  0  0  0
   -5.2686   -0.4171    4.7250 H   0  0  0  0  0  0  0  0  0  0  0  0
   -6.6833   -2.2579    3.7141 H   0  0  0  0  0  0  0  0  0  0  0  0
   -7.8796   -2.0240    6.3526 H   0  0  0  0  0  0  0  0  0  0  0  0
   -9.8994   -1.9430    4.6386 H   0  0  0  0  0  0  0  0  0  0  0  0
   -9.7175   -3.6755    4.7789 H   0  0  0  0  0  0  0  0  0  0  0  0
   -9.9056   -1.4750    9.0549 H   0  0  0  0  0  0  0  0  0  0  0  0
  -11.3714    0.1682   10.0101 H   0  0  0  0  0  0  0  0  0  0  0  0
  -13.3012    1.0639    8.7512 H   0  0  0  0  0  0  0  0  0  0  0  0
  -11.9982   -1.7747    4.4036 H   0  0  0  0  0  0  0  0  0  0  0  0
   -9.5592   -3.9725    8.3709 H   0  0  0  0  0  0  0  0  0  0  0  0
   -8.4545   -2.6901    8.1010 H   0  0  0  0  0  0  0  0  0  0  0  0
   -8.7892   -5.1931    6.3906 H   0  0  0  0  0  0  0  0  0  0  0  0
   -7.4939   -4.8769    7.5531 H   0  0  0  0  0  0  0  0  0  0  0  0
   -7.1191    0.0526    3.3871 H   0  0  0  0  0  0  0  0  0  0  0  0
   -8.6500   -0.7187    3.5325 H   0  0  0  0  0  0  0  0  0  0  0  0
  -10.1599   -0.1100    5.3053 H   0  0  0  0  0  0  0  0  0  0  0  0
   -9.9088    1.3789    6.2229 H   0  0  0  0  0  0  0  0  0  0  0  0
  -10.8056    2.0574    4.2170 H   0  0  0  0  0  0  0  0  0  0  0  0
   -8.9679    3.4002    3.9934 H   0  0  0  0  0  0  0  0  0  0  0  0
   -6.7230    2.0350    4.3513 H   0  0  0  0  0  0  0  0  0  0  0  0
   -7.7080    2.6919    5.6647 H   0  0  0  0  0  0  0  0  0  0  0  0
   -8.3132   -0.3828    7.2044 H   0  0  0  0  0  0  0  0  0  0  0  0
   -7.5923    1.1493    7.2784 H   0  0  0  0  0  0  0  0  0  0  0  0
  1  2  1  0
  2  3  1  0
  3  4  1  0
  4  5  1  0
  5  6  1  0
  6  7  1  0
  7  8  1  0
  8  9  1  0
  9 10  1  0
 10 11  1  0
 11 12  1  0
 12 13  2  0
 13 14  1  0
 14 15  2  0
 15 16  1  0
 16 17  2  0
 17 18  1  0
 18 19  2  0
 19 20  1  0
 11 21  1  0
 21 22  1  0
 22 23  1  0
  8 24  1  0
 24 25  1  0
 25 26  1  0
 26 27  1  0
 27 28  1  0
 28 29  1  0
 25 30  1  0
  6  2  1  0
 23  9  1  0
 29 25  1  0
 30  6  1  0
 20 12  1  0
 20 16  1  0
  2 31  1  0
  3 32  1  0
  3 33  1  0
  4 34  1  0
  4 35  1  0
  5 36  1  0
  5 37  1  0
  7 38  1  0
  7 39  1  0
  8 40  1  0
  9 41  1  0
 10 42  1  0
 10 43  1  0
 13 44  1  0
 14 45  1  0
 15 46  1  0
 19 47  1  0
 21 48  1  0
 21 49  1  0
 22 50  1  0
 22 51  1  0
 24 52  1  0
 24 53  1  0
 26 54  1  0
 26 55  1  0
 27 56  1  0
 28 57  1  0
 29 58  1  0
 29 59  1  0
 30 60  1  0
 30 61  1  0
M  END
>  <Energy>  (57) 
268.23184526667637

>  <compound_id>  (57) 
3131

>  <target_id>  (57) 
1

>  <reference_id>  (57) 
99

>  <inspiration_ids>  (57) 
[99, 73]

>  <energy_score>  (57) 
-22.847109493198445

>  <distance_score>  (57) 
3.1167525000013176

>  <path>  (57) 
/opt/xchem-fragalysis-2/maxwin/BulkDock/SCRATCH/505734/C3131-P99/C3131-P99.minimised.mol

>  <scratch_subdir>  (57) 
/opt/xchem-fragalysis-2/maxwin/BulkDock/SCRATCH/505734/C3131-P99

>  <fragmenstein_runtime>  (57) 
9.924956321716309

>  <fragmenstein_outcome>  (57) 
too moved

>  <fragmenstein_mode>  (57) 
expansion

>  <fragmenstein_error>  (57) 


$$$$
C3131-P73
     RDKit          3D

 61 66  0  0  0  0  0  0  0  0999 V2000
   -5.5325    0.8421    5.9721 F   0  0  0  0  0  0  0  0  0  0  0  0
   -6.4324    0.0804    6.6492 C   0  0  0  0  0  0  0  0  0  0  0  0
   -6.3940    0.5815    8.0741 C   0  0  0  0  0  0  0  0  0  0  0  0
   -5.0305    0.0869    8.5376 C   0  0  0  0  0  0  0  0  0  0  0  0
   -4.6685   -1.0999    7.6519 C   0  0  0  0  0  0  0  0  0  0  0  0
   -5.8937   -1.3505    6.7461 C   0  0  0  0  0  0  0  0  0  0  0  0
   -5.4015   -1.9757    5.4203 C   0  0  0  0  0  0  0  0  0  0  0  0
   -6.3821   -2.9985    4.8136 C   0  0  0  0  0  0  0  0  0  0  0  0
   -6.0833   -3.3034    3.3410 C   0  0  0  0  0  0  0  0  0  0  0  0
   -6.3508   -2.1077    2.3870 C   0  0  0  0  0  0  0  0  0  0  0  0
   -7.5839   -2.3186    1.5946 N   0  0  0  0  0  0  0  0  0  0  0  0
   -8.1192   -1.1842    0.9487 C   0  0  0  0  0  0  0  0  0  0  0  0
   -7.5563   -0.5941   -0.1318 C   0  0  0  0  0  0  0  0  0  0  0  0
   -8.1611    0.5849   -0.7317 C   0  0  0  0  0  0  0  0  0  0  0  0
   -9.2826    1.1308   -0.2282 C   0  0  0  0  0  0  0  0  0  0  0  0
   -9.8918    0.5414    0.9093 C   0  0  0  0  0  0  0  0  0  0  0  0
  -10.9598    0.8621    1.6066 N   0  0  0  0  0  0  0  0  0  0  0  0
  -11.0968   -0.0676    2.6120 N   0  0  0  0  0  0  0  0  0  0  0  0
  -10.1096   -0.9288    2.4998 C   0  0  0  0  0  0  0  0  0  0  0  0
   -9.2996   -0.5932    1.4497 N   0  0  0  0  0  0  0  0  0  0  0  0
   -7.4701   -3.5633    0.7752 C   0  0  0  0  0  0  0  0  0  0  0  0
   -6.7348   -4.6827    1.5270 C   0  0  0  0  0  0  0  0  0  0  0  0
   -6.8099   -4.4935    2.9446 O   0  0  0  0  0  0  0  0  0  0  0  0
   -7.8109   -2.5189    5.0092 C   0  0  0  0  0  0  0  0  0  0  0  0
   -8.2021   -2.5490    6.4962 C   0  0  0  0  0  0  0  0  0  0  0  0
   -9.4455   -1.6906    6.7244 C   0  0  0  0  0  0  0  0  0  0  0  0
  -10.5334   -2.4925    6.1395 N   0  0  0  0  0  0  0  0  0  0  0  0
  -10.1167   -3.8822    6.2204 N   0  0  0  0  0  0  0  0  0  0  0  0
   -8.8069   -3.8885    6.8819 C   0  0  0  0  0  0  0  0  0  0  0  0
   -6.9670   -2.2657    7.3796 C   0  0  0  0  0  0  0  0  0  0  0  0
   -7.4027    0.1997    6.1706 H   0  0  0  0  0  0  0  0  0  0  0  0
   -7.2006    0.1756    8.6908 H   0  0  0  0  0  0  0  0  0  0  0  0
   -6.4487    1.6733    8.1218 H   0  0  0  0  0  0  0  0  0  0  0  0
   -4.2759    0.8712    8.4078 H   0  0  0  0  0  0  0  0  0  0  0  0
   -5.0368   -0.1778    9.5932 H   0  0  0  0  0  0  0  0  0  0  0  0
   -3.7895   -0.8234    7.0535 H   0  0  0  0  0  0  0  0  0  0  0  0
   -4.3771   -1.9738    8.2277 H   0  0  0  0  0  0  0  0  0  0  0  0
   -4.4555   -2.5098    5.5841 H   0  0  0  0  0  0  0  0  0  0  0  0
   -5.1633   -1.1782    4.7087 H   0  0  0  0  0  0  0  0  0  0  0  0
   -6.2695   -3.9477    5.3527 H   0  0  0  0  0  0  0  0  0  0  0  0
   -5.0209   -3.5554    3.2802 H   0  0  0  0  0  0  0  0  0  0  0  0
   -5.5057   -2.0067    1.6948 H   0  0  0  0  0  0  0  0  0  0  0  0
   -6.4016   -1.1563    2.9268 H   0  0  0  0  0  0  0  0  0  0  0  0
   -6.6440   -0.9725   -0.5794 H   0  0  0  0  0  0  0  0  0  0  0  0
   -7.6793    1.0158   -1.6042 H   0  0  0  0  0  0  0  0  0  0  0  0
   -9.7411    2.0090   -0.6681 H   0  0  0  0  0  0  0  0  0  0  0  0
   -9.9380   -1.7859    3.1305 H   0  0  0  0  0  0  0  0  0  0  0  0
   -8.4781   -3.8908    0.5074 H   0  0  0  0  0  0  0  0  0  0  0  0
   -6.9468   -3.3738   -0.1702 H   0  0  0  0  0  0  0  0  0  0  0  0
   -7.1730   -5.6546    1.2832 H   0  0  0  0  0  0  0  0  0  0  0  0
   -5.6816   -4.7280    1.2280 H   0  0  0  0  0  0  0  0  0  0  0  0
   -7.9055   -1.4954    4.6266 H   0  0  0  0  0  0  0  0  0  0  0  0
   -8.4834   -3.1253    4.3952 H   0  0  0  0  0  0  0  0  0  0  0  0
   -9.6295   -1.5346    7.7951 H   0  0  0  0  0  0  0  0  0  0  0  0
   -9.4033   -0.7102    6.2435 H   0  0  0  0  0  0  0  0  0  0  0  0
  -11.3924   -2.3289    6.6780 H   0  0  0  0  0  0  0  0  0  0  0  0
  -10.0115   -4.2914    5.2885 H   0  0  0  0  0  0  0  0  0  0  0  0
   -8.9403   -3.9553    7.9688 H   0  0  0  0  0  0  0  0  0  0  0  0
   -8.1918   -4.7404    6.5935 H   0  0  0  0  0  0  0  0  0  0  0  0
   -6.4668   -3.2275    7.5369 H   0  0  0  0  0  0  0  0  0  0  0  0
   -7.2882   -1.9169    8.3641 H   0  0  0  0  0  0  0  0  0  0  0  0
  1  2  1  0
  2  3  1  0
  3  4  1  0
  4  5  1  0
  5  6  1  0
  6  7  1  0
  7  8  1  0
  8  9  1  0
  9 10  1  0
 10 11  1  0
 11 12  1  0
 12 13  2  0
 13 14  1  0
 14 15  2  0
 15 16  1  0
 16 17  2  0
 17 18  1  0
 18 19  2  0
 19 20  1  0
 11 21  1  0
 21 22  1  0
 22 23  1  0
  8 24  1  0
 24 25  1  0
 25 26  1  0
 26 27  1  0
 27 28  1  0
 28 29  1  0
 25 30  1  0
  6  2  1  0
 23  9  1  0
 29 25  1  0
 30  6  1  0
 20 12  1  0
 20 16  1  0
  2 31  1  0
  3 32  1  0
  3 33  1  0
  4 34  1  0
  4 35  1  0
  5 36  1  0
  5 37  1  0
  7 38  1  0
  7 39  1  0
  8 40  1  0
  9 41  1  0
 10 42  1  0
 10 43  1  0
 13 44  1  0
 14 45  1  0
 15 46  1  0
 19 47  1  0
 21 48  1  0
 21 49  1  0
 22 50  1  0
 22 51  1  0
 24 52  1  0
 24 53  1  0
 26 54  1  0
 26 55  1  0
 27 56  1  0
 28 57  1  0
 29 58  1  0
 29 59  1  0
 30 60  1  0
 30 61  1  0
M  END
>  <Energy>  (58) 
223.01682050856442

>  <compound_id>  (58) 
3131

>  <target_id>  (58) 
1

>  <reference_id>  (58) 
73

>  <inspiration_ids>  (58) 
[99, 73]

>  <energy_score>  (58) 
-68.06213425131239

>  <distance_score>  (58) 
2.41979666429497

>  <path>  (58) 
/opt/xchem-fragalysis-2/maxwin/BulkDock/SCRATCH/505734/C3131-P73/C3131-P73.minimised.mol

>  <scratch_subdir>  (58) 
/opt/xchem-fragalysis-2/maxwin/BulkDock/SCRATCH/505734/C3131-P73

>  <fragmenstein_runtime>  (58) 
12.252174377441406

>  <fragmenstein_outcome>  (58) 
too moved

>  <fragmenstein_mode>  (58) 
expansion

>  <fragmenstein_error>  (58) 


$$$$
C3135-P99
     RDKit          3D

 36 39  0  0  0  0  0  0  0  0999 V2000
   -7.8481   -3.7531    6.3393 F   0  0  0  0  0  0  0  0  0  0  0  0
   -6.9997   -2.8671    5.7430 C   0  0  0  0  0  0  0  0  0  0  0  0
   -5.7488   -2.7420    6.6112 C   0  0  0  0  0  0  0  0  0  0  0  0
   -5.9392   -1.5027    7.4964 C   0  0  0  0  0  0  0  0  0  0  0  0
   -7.3880   -1.1093    7.2996 C   0  0  0  0  0  0  0  0  0  0  0  0
   -7.5818   -1.4615    5.8101 C   0  0  0  0  0  0  0  0  0  0  0  0
   -6.8406   -0.4977    4.8887 C   0  0  0  0  0  0  0  0  0  0  0  0
   -7.6718    0.6888    5.0451 N   0  0  0  0  0  0  0  0  0  0  0  0
   -9.0358    0.1810    5.1748 C   0  0  0  0  0  0  0  0  0  0  0  0
   -9.8421    0.7018    3.6801 S   0  0  0  0  0  0  0  0  0  0  0  0
  -11.3293   -0.1524    3.5333 C   0  0  0  0  0  0  0  0  0  0  0  0
  -11.6245   -0.6296    2.3045 C   0  0  0  0  0  0  0  0  0  0  0  0
  -12.9492   -1.1539    2.0221 C   0  0  0  0  0  0  0  0  0  0  0  0
  -13.8972   -1.2163    2.9719 C   0  0  0  0  0  0  0  0  0  0  0  0
  -13.6063   -0.7390    4.2758 C   0  0  0  0  0  0  0  0  0  0  0  0
  -14.3542   -0.6452    5.3560 N   0  0  0  0  0  0  0  0  0  0  0  0
  -13.6029   -0.0332    6.3274 N   0  0  0  0  0  0  0  0  0  0  0  0
  -12.4213    0.2352    5.8116 C   0  0  0  0  0  0  0  0  0  0  0  0
  -12.3360   -0.2123    4.5174 N   0  0  0  0  0  0  0  0  0  0  0  0
   -8.9453   -1.2517    5.3331 N   0  0  0  0  0  0  0  0  0  0  0  0
   -6.7868   -3.2280    4.7329 H   0  0  0  0  0  0  0  0  0  0  0  0
   -4.8498   -2.6204    5.9971 H   0  0  0  0  0  0  0  0  0  0  0  0
   -5.6289   -3.6293    7.2182 H   0  0  0  0  0  0  0  0  0  0  0  0
   -5.6952   -1.6518    8.5403 H   0  0  0  0  0  0  0  0  0  0  0  0
   -5.2661   -0.7026    7.1662 H   0  0  0  0  0  0  0  0  0  0  0  0
   -7.5512   -0.0588    7.5590 H   0  0  0  0  0  0  0  0  0  0  0  0
   -8.0444   -1.7171    7.9352 H   0  0  0  0  0  0  0  0  0  0  0  0
   -6.8469   -0.8455    3.8465 H   0  0  0  0  0  0  0  0  0  0  0  0
   -5.8050   -0.2754    5.1537 H   0  0  0  0  0  0  0  0  0  0  0  0
   -7.6376    1.2455    4.1940 H   0  0  0  0  0  0  0  0  0  0  0  0
   -9.4906    0.6546    6.0483 H   0  0  0  0  0  0  0  0  0  0  0  0
  -10.9296   -0.5764    1.4704 H   0  0  0  0  0  0  0  0  0  0  0  0
  -13.1538   -1.4760    1.0054 H   0  0  0  0  0  0  0  0  0  0  0  0
  -14.8877   -1.6025    2.7635 H   0  0  0  0  0  0  0  0  0  0  0  0
  -11.6270    0.7488    6.3265 H   0  0  0  0  0  0  0  0  0  0  0  0
   -9.6172   -1.5985    6.0164 H   0  0  0  0  0  0  0  0  0  0  0  0
  1  2  1  0
  2  3  1  0
  3  4  1  0
  4  5  1  0
  5  6  1  0
  6  7  1  0
  7  8  1  0
  8  9  1  0
  9 10  1  0
 10 11  1  0
 11 12  2  0
 12 13  1  0
 13 14  2  0
 14 15  1  0
 15 16  2  0
 16 17  1  0
 17 18  2  0
 18 19  1  0
  9 20  1  0
  6  2  1  0
 19 11  1  0
 20  6  1  0
 19 15  1  0
  2 21  1  0
  3 22  1  0
  3 23  1  0
  4 24  1  0
  4 25  1  0
  5 26  1  0
  5 27  1  0
  7 28  1  0
  7 29  1  0
  8 30  1  0
  9 31  1  0
 12 32  1  0
 13 33  1  0
 14 34  1  0
 18 35  1  0
 20 36  1  0
M  END
>  <Energy>  (59) 
15.429502306860222

>  <compound_id>  (59) 
3135

>  <target_id>  (59) 
1

>  <reference_id>  (59) 
99

>  <inspiration_ids>  (59) 
[99, 95]

>  <energy_score>  (59) 
-34.50177940698393

>  <distance_score>  (59) 
1.8153286625332419

>  <path>  (59) 
/opt/xchem-fragalysis-2/maxwin/BulkDock/SCRATCH/505734/C3135-P99/C3135-P99.minimised.mol

>  <scratch_subdir>  (59) 
/opt/xchem-fragalysis-2/maxwin/BulkDock/SCRATCH/505734/C3135-P99

>  <fragmenstein_runtime>  (59) 
4.886129140853882

>  <fragmenstein_outcome>  (59) 
too moved

>  <fragmenstein_mode>  (59) 
expansion

>  <fragmenstein_error>  (59) 


$$$$
C3135-P95
     RDKit          3D

 36 39  0  0  0  0  0  0  0  0999 V2000
   -7.3508   -3.9704    5.3987 F   0  0  0  0  0  0  0  0  0  0  0  0
   -7.3176   -3.2456    6.5395 C   0  0  0  0  0  0  0  0  0  0  0  0
   -8.5902   -3.4501    7.3501 C   0  0  0  0  0  0  0  0  0  0  0  0
   -8.9818   -2.0574    7.8609 C   0  0  0  0  0  0  0  0  0  0  0  0
   -7.7939   -1.1574    7.5563 C   0  0  0  0  0  0  0  0  0  0  0  0
   -7.3102   -1.7530    6.2346 C   0  0  0  0  0  0  0  0  0  0  0  0
   -6.0193   -1.2039    5.6773 C   0  0  0  0  0  0  0  0  0  0  0  0
   -6.4334   -0.0015    4.9394 N   0  0  0  0  0  0  0  0  0  0  0  0
   -7.8656   -0.1237    4.7099 C   0  0  0  0  0  0  0  0  0  0  0  0
   -8.2676    0.0088    2.9690 S   0  0  0  0  0  0  0  0  0  0  0  0
   -9.9657    0.3552    3.0614 C   0  0  0  0  0  0  0  0  0  0  0  0
  -10.8569   -0.5675    3.4752 C   0  0  0  0  0  0  0  0  0  0  0  0
  -12.2709   -0.2285    3.5493 C   0  0  0  0  0  0  0  0  0  0  0  0
  -12.7210    0.9900    3.1981 C   0  0  0  0  0  0  0  0  0  0  0  0
  -11.7973    1.9699    2.7477 C   0  0  0  0  0  0  0  0  0  0  0  0
  -11.9474    3.2184    2.3613 N   0  0  0  0  0  0  0  0  0  0  0  0
  -10.7050    3.7083    2.0294 N   0  0  0  0  0  0  0  0  0  0  0  0
   -9.8304    2.7459    2.2210 C   0  0  0  0  0  0  0  0  0  0  0  0
  -10.4537    1.6174    2.6882 N   0  0  0  0  0  0  0  0  0  0  0  0
   -8.2554   -1.4279    5.1611 N   0  0  0  0  0  0  0  0  0  0  0  0
   -6.4274   -3.5428    7.0992 H   0  0  0  0  0  0  0  0  0  0  0  0
   -8.4097   -4.1399    8.1789 H   0  0  0  0  0  0  0  0  0  0  0  0
   -9.3896   -3.8792    6.7367 H   0  0  0  0  0  0  0  0  0  0  0  0
   -9.8704   -1.7100    7.3178 H   0  0  0  0  0  0  0  0  0  0  0  0
   -9.2552   -2.0465    8.9110 H   0  0  0  0  0  0  0  0  0  0  0  0
   -7.0242   -1.2544    8.3311 H   0  0  0  0  0  0  0  0  0  0  0  0
   -8.0853   -0.1038    7.5073 H   0  0  0  0  0  0  0  0  0  0  0  0
   -5.5501   -1.9030    4.9746 H   0  0  0  0  0  0  0  0  0  0  0  0
   -5.2883   -0.9581    6.4542 H   0  0  0  0  0  0  0  0  0  0  0  0
   -6.2925    0.8151    5.5270 H   0  0  0  0  0  0  0  0  0  0  0  0
   -8.3921    0.6580    5.2702 H   0  0  0  0  0  0  0  0  0  0  0  0
  -10.5731   -1.5673    3.7916 H   0  0  0  0  0  0  0  0  0  0  0  0
  -12.9490   -0.9974    3.9097 H   0  0  0  0  0  0  0  0  0  0  0  0
  -13.7718    1.2496    3.2530 H   0  0  0  0  0  0  0  0  0  0  0  0
   -8.7672    2.8121    2.0432 H   0  0  0  0  0  0  0  0  0  0  0  0
   -8.0677   -2.0682    4.3876 H   0  0  0  0  0  0  0  0  0  0  0  0
  1  2  1  0
  2  3  1  0
  3  4  1  0
  4  5  1  0
  5  6  1  0
  6  7  1  0
  7  8  1  0
  8  9  1  0
  9 10  1  0
 10 11  1  0
 11 12  2  0
 12 13  1  0
 13 14  2  0
 14 15  1  0
 15 16  2  0
 16 17  1  0
 17 18  2  0
 18 19  1  0
  9 20  1  0
  6  2  1  0
 19 11  1  0
 20  6  1  0
 19 15  1  0
  2 21  1  0
  3 22  1  0
  3 23  1  0
  4 24  1  0
  4 25  1  0
  5 26  1  0
  5 27  1  0
  7 28  1  0
  7 29  1  0
  8 30  1  0
  9 31  1  0
 12 32  1  0
 13 33  1  0
 14 34  1  0
 18 35  1  0
 20 36  1  0
M  END
>  <Energy>  (60) 
7.584590404984664

>  <compound_id>  (60) 
3135

>  <target_id>  (60) 
1

>  <reference_id>  (60) 
95

>  <inspiration_ids>  (60) 
[99, 95]

>  <energy_score>  (60) 
-42.346691308859064

>  <distance_score>  (60) 
1.6921091549826501

>  <path>  (60) 
/opt/xchem-fragalysis-2/maxwin/BulkDock/SCRATCH/505734/C3135-P95/C3135-P95.minimised.mol

>  <scratch_subdir>  (60) 
/opt/xchem-fragalysis-2/maxwin/BulkDock/SCRATCH/505734/C3135-P95

>  <fragmenstein_runtime>  (60) 
5.5789954662323

>  <fragmenstein_outcome>  (60) 
too moved

>  <fragmenstein_mode>  (60) 
expansion

>  <fragmenstein_error>  (60) 


$$$$
C3137-P99
     RDKit          3D

 41 43  0  0  0  0  0  0  0  0999 V2000
   -4.5395   -2.9727    6.7313 O   0  0  0  0  0  0  0  0  0  0  0  0
   -5.3499   -2.4317    6.0020 C   0  0  0  0  0  0  0  0  0  0  0  0
   -5.0030   -1.6197    4.9800 O   0  0  0  0  0  0  0  0  0  0  0  0
   -6.8099   -2.6391    6.0989 C   0  0  0  0  0  0  0  0  0  0  0  0
   -7.3220   -3.9192    6.2864 C   0  0  0  0  0  0  0  0  0  0  0  0
   -8.6940   -4.1246    6.3809 C   0  0  0  0  0  0  0  0  0  0  0  0
   -9.5656   -3.0505    6.2970 C   0  0  0  0  0  0  0  0  0  0  0  0
   -9.0654   -1.7577    6.1309 C   0  0  0  0  0  0  0  0  0  0  0  0
   -9.9218   -0.6355    6.2076 N   0  0  0  0  0  0  0  0  0  0  0  0
   -9.9307    0.2262    7.3234 C   0  0  0  0  0  0  0  0  0  0  0  0
   -8.8917    0.2020    8.1646 N   0  0  0  0  0  0  0  0  0  0  0  0
   -9.0355    0.8845    9.2996 C   0  0  0  0  0  0  0  0  0  0  0  0
  -10.1495    1.6193    9.6095 C   0  0  0  0  0  0  0  0  0  0  0  0
  -11.1522    1.6366    8.6741 C   0  0  0  0  0  0  0  0  0  0  0  0
  -12.3485    2.3496    8.8896 N   0  0  0  0  0  0  0  0  0  0  0  0
  -13.0574    1.9695   10.1138 C   0  0  0  0  0  0  0  0  0  0  0  0
  -13.1031    0.5438   10.3464 N   0  0  0  0  0  0  0  0  0  0  0  0
  -13.8077   -0.1399    9.5198 C   0  0  0  0  0  0  0  0  0  0  0  0
  -15.0443    0.2938    8.7563 C   0  0  0  0  0  0  0  0  0  0  0  0
  -14.7358    0.1520    7.2936 C   0  0  0  0  0  0  0  0  0  0  0  0
  -15.7296    1.3658    5.9603 I   0  0  0  0  0  0  0  0  0  0  0  0
  -13.8360   -0.7444    6.8640 C   0  0  0  0  0  0  0  0  0  0  0  0
  -13.2374   -1.5932    7.9166 C   0  0  0  0  0  0  0  0  0  0  0  0
  -13.2694   -1.3476    9.1862 N   0  0  0  0  0  0  0  0  0  0  0  0
  -11.0443    0.9618    7.5180 N   0  0  0  0  0  0  0  0  0  0  0  0
   -7.6817   -1.5604    6.0380 C   0  0  0  0  0  0  0  0  0  0  0  0
   -5.7534   -1.2982    4.4457 H   0  0  0  0  0  0  0  0  0  0  0  0
   -6.6580   -4.7705    6.3234 H   0  0  0  0  0  0  0  0  0  0  0  0
   -9.0881   -5.1251    6.5113 H   0  0  0  0  0  0  0  0  0  0  0  0
  -10.6327   -3.2207    6.4034 H   0  0  0  0  0  0  0  0  0  0  0  0
  -10.8917   -0.8374    6.0058 H   0  0  0  0  0  0  0  0  0  0  0  0
   -8.1972    0.8242    9.9849 H   0  0  0  0  0  0  0  0  0  0  0  0
  -10.2156    2.1626   10.5402 H   0  0  0  0  0  0  0  0  0  0  0  0
  -12.8978    2.1651    8.0557 H   0  0  0  0  0  0  0  0  0  0  0  0
  -12.5443    2.4318   10.9665 H   0  0  0  0  0  0  0  0  0  0  0  0
  -14.0482    2.4355   10.1268 H   0  0  0  0  0  0  0  0  0  0  0  0
  -15.8706   -0.3740    9.0275 H   0  0  0  0  0  0  0  0  0  0  0  0
  -15.3454    1.3081    9.0194 H   0  0  0  0  0  0  0  0  0  0  0  0
  -13.5720   -0.9326    5.8320 H   0  0  0  0  0  0  0  0  0  0  0  0
  -12.7575   -2.5159    7.5543 H   0  0  0  0  0  0  0  0  0  0  0  0
   -7.2987   -0.5439    5.9759 H   0  0  0  0  0  0  0  0  0  0  0  0
  1  2  2  0
  2  3  1  0
  2  4  1  0
  4  5  2  0
  5  6  1  0
  6  7  2  0
  7  8  1  0
  8  9  1  0
  9 10  1  0
 10 11  2  0
 11 12  1  0
 12 13  2  0
 13 14  1  0
 14 15  1  0
 15 16  1  0
 16 17  1  0
 17 18  2  3
 18 19  1  0
 19 20  1  0
 20 21  1  0
 20 22  2  0
 22 23  1  0
 23 24  2  0
 14 25  2  0
  8 26  2  0
 26  4  1  0
 25 10  1  0
 24 18  1  0
  3 27  1  0
  5 28  1  0
  6 29  1  0
  7 30  1  0
  9 31  1  0
 12 32  1  0
 13 33  1  0
 15 34  1  0
 16 35  1  0
 16 36  1  0
 19 37  1  0
 19 38  1  0
 22 39  1  0
 23 40  1  0
 26 41  1  0
M  END
>  <Energy>  (61) 
-95.495439925891901

>  <compound_id>  (61) 
3137

>  <target_id>  (61) 
1

>  <reference_id>  (61) 
99

>  <inspiration_ids>  (61) 
[99, 127]

>  <energy_score>  (61) 
-31.09124541017519

>  <distance_score>  (61) 
2.0035931215562366

>  <path>  (61) 
/opt/xchem-fragalysis-2/maxwin/BulkDock/SCRATCH/505734/C3137-P99/C3137-P99.minimised.mol

>  <scratch_subdir>  (61) 
/opt/xchem-fragalysis-2/maxwin/BulkDock/SCRATCH/505734/C3137-P99

>  <fragmenstein_runtime>  (61) 
5.381049633026123

>  <fragmenstein_outcome>  (61) 
too moved

>  <fragmenstein_mode>  (61) 
expansion

>  <fragmenstein_error>  (61) 


$$$$
C3137-P127
     RDKit          3D

 41 43  0  0  0  0  0  0  0  0999 V2000
   -7.1717   -0.3093    3.3990 O   0  0  0  0  0  0  0  0  0  0  0  0
   -6.9609   -1.4718    3.6874 C   0  0  0  0  0  0  0  0  0  0  0  0
   -6.3550   -2.3059    2.8210 O   0  0  0  0  0  0  0  0  0  0  0  0
   -7.3563   -2.1674    4.9339 C   0  0  0  0  0  0  0  0  0  0  0  0
   -6.8531   -3.4142    5.2709 C   0  0  0  0  0  0  0  0  0  0  0  0
   -7.3290   -4.0755    6.3939 C   0  0  0  0  0  0  0  0  0  0  0  0
   -8.2846   -3.4999    7.2093 C   0  0  0  0  0  0  0  0  0  0  0  0
   -8.7542   -2.2204    6.9332 C   0  0  0  0  0  0  0  0  0  0  0  0
   -9.5540   -1.6061    7.8974 N   0  0  0  0  0  0  0  0  0  0  0  0
   -9.9857   -0.2995    8.0613 C   0  0  0  0  0  0  0  0  0  0  0  0
   -9.7163    0.6331    7.1460 N   0  0  0  0  0  0  0  0  0  0  0  0
  -10.2720    1.8289    7.3332 C   0  0  0  0  0  0  0  0  0  0  0  0
  -11.0430    2.1415    8.4212 C   0  0  0  0  0  0  0  0  0  0  0  0
  -11.2281    1.1454    9.3455 C   0  0  0  0  0  0  0  0  0  0  0  0
  -11.8295    1.3670   10.5778 N   0  0  0  0  0  0  0  0  0  0  0  0
  -13.1554    1.9380   10.5837 C   0  0  0  0  0  0  0  0  0  0  0  0
  -14.2488    1.0030   10.4037 N   0  0  0  0  0  0  0  0  0  0  0  0
  -14.7768    0.9670    9.2312 C   0  0  0  0  0  0  0  0  0  0  0  0
  -16.0126    0.1128    9.0306 C   0  0  0  0  0  0  0  0  0  0  0  0
  -16.3084   -0.1347    7.5838 C   0  0  0  0  0  0  0  0  0  0  0  0
  -17.8943   -1.3900    7.1238 I   0  0  0  0  0  0  0  0  0  0  0  0
  -15.6489    0.4725    6.5917 C   0  0  0  0  0  0  0  0  0  0  0  0
  -14.6684    1.4823    7.0013 C   0  0  0  0  0  0  0  0  0  0  0  0
  -14.2992    1.7512    8.2064 N   0  0  0  0  0  0  0  0  0  0  0  0
  -10.6899   -0.0608    9.1720 N   0  0  0  0  0  0  0  0  0  0  0  0
   -8.2810   -1.5689    5.7847 C   0  0  0  0  0  0  0  0  0  0  0  0
   -6.2346   -1.7777    2.0036 H   0  0  0  0  0  0  0  0  0  0  0  0
   -6.1247   -3.9081    4.6343 H   0  0  0  0  0  0  0  0  0  0  0  0
   -6.9883   -5.0765    6.5928 H   0  0  0  0  0  0  0  0  0  0  0  0
   -8.6332   -4.0237    8.0918 H   0  0  0  0  0  0  0  0  0  0  0  0
  -10.0808   -2.2040    8.5363 H   0  0  0  0  0  0  0  0  0  0  0  0
  -10.0602    2.5659    6.5655 H   0  0  0  0  0  0  0  0  0  0  0  0
  -11.4423    3.1366    8.5469 H   0  0  0  0  0  0  0  0  0  0  0  0
  -11.2024    1.9688   11.1016 H   0  0  0  0  0  0  0  0  0  0  0  0
  -13.2976    2.3395   11.5963 H   0  0  0  0  0  0  0  0  0  0  0  0
  -13.2248    2.8440    9.9676 H   0  0  0  0  0  0  0  0  0  0  0  0
  -15.8728   -0.8194    9.5820 H   0  0  0  0  0  0  0  0  0  0  0  0
  -16.8525    0.6446    9.4947 H   0  0  0  0  0  0  0  0  0  0  0  0
  -15.8426    0.3422    5.5344 H   0  0  0  0  0  0  0  0  0  0  0  0
  -14.2469    2.0803    6.1757 H   0  0  0  0  0  0  0  0  0  0  0  0
   -8.6441   -0.5802    5.5226 H   0  0  0  0  0  0  0  0  0  0  0  0
  1  2  2  0
  2  3  1  0
  2  4  1  0
  4  5  2  0
  5  6  1  0
  6  7  2  0
  7  8  1  0
  8  9  1  0
  9 10  1  0
 10 11  2  0
 11 12  1  0
 12 13  2  0
 13 14  1  0
 14 15  1  0
 15 16  1  0
 16 17  1  0
 17 18  2  3
 18 19  1  0
 19 20  1  0
 20 21  1  0
 20 22  2  0
 22 23  1  0
 23 24  2  0
 14 25  2  0
  8 26  2  0
 26  4  1  0
 25 10  1  0
 24 18  1  0
  3 27  1  0
  5 28  1  0
  6 29  1  0
  7 30  1  0
  9 31  1  0
 12 32  1  0
 13 33  1  0
 15 34  1  0
 16 35  1  0
 16 36  1  0
 19 37  1  0
 19 38  1  0
 22 39  1  0
 23 40  1  0
 26 41  1  0
M  END
>  <Energy>  (62) 
-110.76942957388265

>  <compound_id>  (62) 
3137

>  <target_id>  (62) 
1

>  <reference_id>  (62) 
127

>  <inspiration_ids>  (62) 
[99, 127]

>  <energy_score>  (62) 
-46.36523505816582

>  <distance_score>  (62) 
2.619059228913585

>  <path>  (62) 
/opt/xchem-fragalysis-2/maxwin/BulkDock/SCRATCH/505734/C3137-P127/C3137-P127.minimised.mol

>  <scratch_subdir>  (62) 
/opt/xchem-fragalysis-2/maxwin/BulkDock/SCRATCH/505734/C3137-P127

>  <fragmenstein_runtime>  (62) 
5.683293581008911

>  <fragmenstein_outcome>  (62) 
too moved

>  <fragmenstein_mode>  (62) 
expansion

>  <fragmenstein_error>  (62) 


$$$$
C1709-P99
     RDKit          3D

 41 43  0  0  0  0  0  0  0  0999 V2000
   -8.8736    0.7711    5.9906 N   0  0  0  0  0  0  0  0  0  0  0  0
   -7.9959    0.1858    6.4641 C   0  0  0  0  0  0  0  0  0  0  0  0
   -6.9986   -0.7037    6.9107 C   0  0  0  0  0  0  0  0  0  0  0  0
   -5.6804   -0.3183    7.0964 C   0  0  0  0  0  0  0  0  0  0  0  0
   -4.7302   -1.3196    7.1617 C   0  0  0  0  0  0  0  0  0  0  0  0
   -2.9708   -0.9263    7.5921 Br  0  0  0  0  0  0  0  0  0  0  0  0
   -5.0692   -2.6464    6.9275 C   0  0  0  0  0  0  0  0  0  0  0  0
   -6.4112   -3.0099    6.8336 C   0  0  0  0  0  0  0  0  0  0  0  0
   -7.3816   -2.0320    6.9509 C   0  0  0  0  0  0  0  0  0  0  0  0
   -8.7070   -2.3630    6.9416 O   0  0  0  0  0  0  0  0  0  0  0  0
   -9.4252   -1.9625    8.1458 C   0  0  0  0  0  0  0  0  0  0  0  0
   -9.4112   -0.5597    8.6424 N   0  0  0  0  0  0  0  0  0  0  0  0
  -10.0647   -0.3523    9.7319 C   0  0  0  0  0  0  0  0  0  0  0  0
  -10.5364   -1.3544   10.4891 O   0  0  0  0  0  0  0  0  0  0  0  0
  -10.4543    0.9639   10.2910 C   0  0  0  0  0  0  0  0  0  0  0  0
   -9.6696    2.1088   10.2111 C   0  0  0  0  0  0  0  0  0  0  0  0
  -10.2175    3.3618   10.5050 C   0  0  0  0  0  0  0  0  0  0  0  0
  -11.5984    3.4723   10.6458 C   0  0  0  0  0  0  0  0  0  0  0  0
  -12.3757    2.3116   10.6416 C   0  0  0  0  0  0  0  0  0  0  0  0
  -13.6013    2.2785    9.8559 N   0  0  0  0  0  0  0  0  0  0  0  0
  -13.3583    1.7205    8.5500 C   0  0  0  0  0  0  0  0  0  0  0  0
  -13.4688    0.3783    8.4604 N   0  0  0  0  0  0  0  0  0  0  0  0
  -12.8081   -0.2255    7.4473 C   0  0  0  0  0  0  0  0  0  0  0  0
  -12.0987    0.4553    6.4953 C   0  0  0  0  0  0  0  0  0  0  0  0
  -12.1108    1.8190    6.6293 C   0  0  0  0  0  0  0  0  0  0  0  0
  -12.7358    2.4702    7.6317 N   0  0  0  0  0  0  0  0  0  0  0  0
  -11.7615    1.0698   10.7563 C   0  0  0  0  0  0  0  0  0  0  0  0
   -5.4084    0.7290    7.1542 H   0  0  0  0  0  0  0  0  0  0  0  0
   -4.3016   -3.4145    6.9110 H   0  0  0  0  0  0  0  0  0  0  0  0
   -6.7041   -4.0496    6.7221 H   0  0  0  0  0  0  0  0  0  0  0  0
   -9.0979   -2.6626    8.9084 H   0  0  0  0  0  0  0  0  0  0  0  0
  -10.4613   -2.1834    7.8768 H   0  0  0  0  0  0  0  0  0  0  0  0
  -10.9163   -1.0989   11.3377 H   0  0  0  0  0  0  0  0  0  0  0  0
   -8.6518    2.0282    9.8448 H   0  0  0  0  0  0  0  0  0  0  0  0
   -9.6049    4.2555   10.4186 H   0  0  0  0  0  0  0  0  0  0  0  0
  -12.0709    4.4475   10.5630 H   0  0  0  0  0  0  0  0  0  0  0  0
  -14.1581    1.5139   10.2388 H   0  0  0  0  0  0  0  0  0  0  0  0
  -12.8579   -1.3111    7.4351 H   0  0  0  0  0  0  0  0  0  0  0  0
  -11.5576   -0.0471    5.7057 H   0  0  0  0  0  0  0  0  0  0  0  0
  -11.5708    2.4505    5.9299 H   0  0  0  0  0  0  0  0  0  0  0  0
  -12.3999    0.1863   10.7502 H   0  0  0  0  0  0  0  0  0  0  0  0
  1  2  3  0
  2  3  1  0
  3  4  2  0
  4  5  1  0
  5  6  1  0
  5  7  2  0
  7  8  1  0
  8  9  2  0
  9 10  1  0
 10 11  1  0
 11 12  1  0
 12 13  2  3
 13 14  1  0
 13 15  1  0
 15 16  2  0
 16 17  1  0
 17 18  2  0
 18 19  1  0
 19 20  1  0
 20 21  1  0
 21 22  2  0
 22 23  1  0
 23 24  2  0
 24 25  1  0
 25 26  2  0
 19 27  2  0
  9  3  1  0
 27 15  1  0
 26 21  1  0
  4 28  1  0
  7 29  1  0
  8 30  1  0
 11 31  1  0
 11 32  1  0
 14 33  1  0
 16 34  1  0
 17 35  1  0
 18 36  1  0
 20 37  1  0
 23 38  1  0
 24 39  1  0
 25 40  1  0
 27 41  1  0
M  END
>  <Energy>  (63) 
32.325208663222206

>  <compound_id>  (63) 
1709

>  <target_id>  (63) 
1

>  <reference_id>  (63) 
99

>  <inspiration_ids>  (63) 
[99, 139]

>  <energy_score>  (63) 
-77.79942837433458

>  <distance_score>  (63) 
2.6850475510603475

>  <path>  (63) 
/opt/xchem-fragalysis-2/maxwin/BulkDock/SCRATCH/505734/C1709-P99/C1709-P99.minimised.mol

>  <scratch_subdir>  (63) 
/opt/xchem-fragalysis-2/maxwin/BulkDock/SCRATCH/505734/C1709-P99

>  <fragmenstein_runtime>  (63) 
11.451517105102539

>  <fragmenstein_outcome>  (63) 
too moved

>  <fragmenstein_mode>  (63) 
expansion

>  <fragmenstein_error>  (63) 


$$$$
C1709-P139
     RDKit          3D

 41 43  0  0  0  0  0  0  0  0999 V2000
   -9.3534   -0.2251    5.3275 N   0  0  0  0  0  0  0  0  0  0  0  0
   -8.3248   -0.2874    5.8576 C   0  0  0  0  0  0  0  0  0  0  0  0
   -7.1178   -0.6523    6.5011 C   0  0  0  0  0  0  0  0  0  0  0  0
   -6.0148    0.1559    6.6791 C   0  0  0  0  0  0  0  0  0  0  0  0
   -4.8560   -0.4490    7.1464 C   0  0  0  0  0  0  0  0  0  0  0  0
   -3.5126    0.6027    7.8607 Br  0  0  0  0  0  0  0  0  0  0  0  0
   -4.7253   -1.8292    7.2114 C   0  0  0  0  0  0  0  0  0  0  0  0
   -5.8682   -2.5997    7.0742 C   0  0  0  0  0  0  0  0  0  0  0  0
   -7.0836   -1.9631    6.9223 C   0  0  0  0  0  0  0  0  0  0  0  0
   -8.2502   -2.6334    7.1114 O   0  0  0  0  0  0  0  0  0  0  0  0
   -9.1415   -2.0266    8.1024 C   0  0  0  0  0  0  0  0  0  0  0  0
   -9.1502   -0.5672    8.4952 N   0  0  0  0  0  0  0  0  0  0  0  0
   -9.8520   -0.3295    9.5577 C   0  0  0  0  0  0  0  0  0  0  0  0
  -10.2664   -1.3408   10.3276 O   0  0  0  0  0  0  0  0  0  0  0  0
  -10.3369    0.9907   10.0730 C   0  0  0  0  0  0  0  0  0  0  0  0
   -9.7635    2.1979    9.6954 C   0  0  0  0  0  0  0  0  0  0  0  0
  -10.3519    3.4262   10.0293 C   0  0  0  0  0  0  0  0  0  0  0  0
  -11.6576    3.4414   10.4962 C   0  0  0  0  0  0  0  0  0  0  0  0
  -12.2972    2.2216   10.7046 C   0  0  0  0  0  0  0  0  0  0  0  0
  -13.6147    2.0284   10.0952 N   0  0  0  0  0  0  0  0  0  0  0  0
  -13.4850    1.4580    8.7811 C   0  0  0  0  0  0  0  0  0  0  0  0
  -13.3911    0.1129    8.7391 N   0  0  0  0  0  0  0  0  0  0  0  0
  -12.8036   -0.4286    7.6513 C   0  0  0  0  0  0  0  0  0  0  0  0
  -12.3645    0.3090    6.5847 C   0  0  0  0  0  0  0  0  0  0  0  0
  -12.5720    1.6594    6.6863 C   0  0  0  0  0  0  0  0  0  0  0  0
  -13.1303    2.2515    7.7604 N   0  0  0  0  0  0  0  0  0  0  0  0
  -11.5466    1.0447   10.7729 C   0  0  0  0  0  0  0  0  0  0  0  0
   -6.0746    1.2249    6.5072 H   0  0  0  0  0  0  0  0  0  0  0  0
   -3.7854   -2.2989    7.4874 H   0  0  0  0  0  0  0  0  0  0  0  0
   -5.8394   -3.6738    7.1994 H   0  0  0  0  0  0  0  0  0  0  0  0
   -8.9846   -2.6671    8.9593 H   0  0  0  0  0  0  0  0  0  0  0  0
  -10.1316   -2.2218    7.6784 H   0  0  0  0  0  0  0  0  0  0  0  0
  -10.7839   -1.1365   11.1076 H   0  0  0  0  0  0  0  0  0  0  0  0
   -8.8675    2.1885    9.0796 H   0  0  0  0  0  0  0  0  0  0  0  0
   -9.8670    4.3544    9.7382 H   0  0  0  0  0  0  0  0  0  0  0  0
  -12.2283    4.3657   10.4676 H   0  0  0  0  0  0  0  0  0  0  0  0
  -14.0263    1.2291   10.5765 H   0  0  0  0  0  0  0  0  0  0  0  0
  -12.6874   -1.5081    7.6748 H   0  0  0  0  0  0  0  0  0  0  0  0
  -11.8953   -0.1418    5.7229 H   0  0  0  0  0  0  0  0  0  0  0  0
  -12.2659    2.3335    5.8920 H   0  0  0  0  0  0  0  0  0  0  0  0
  -12.1105    0.1355   10.9648 H   0  0  0  0  0  0  0  0  0  0  0  0
  1  2  3  0
  2  3  1  0
  3  4  2  0
  4  5  1  0
  5  6  1  0
  5  7  2  0
  7  8  1  0
  8  9  2  0
  9 10  1  0
 10 11  1  0
 11 12  1  0
 12 13  2  3
 13 14  1  0
 13 15  1  0
 15 16  2  0
 16 17  1  0
 17 18  2  0
 18 19  1  0
 19 20  1  0
 20 21  1  0
 21 22  2  0
 22 23  1  0
 23 24  2  0
 24 25  1  0
 25 26  2  0
 19 27  2  0
  9  3  1  0
 27 15  1  0
 26 21  1  0
  4 28  1  0
  7 29  1  0
  8 30  1  0
 11 31  1  0
 11 32  1  0
 14 33  1  0
 16 34  1  0
 17 35  1  0
 18 36  1  0
 20 37  1  0
 23 38  1  0
 24 39  1  0
 25 40  1  0
 27 41  1  0
M  END
>  <Energy>  (64) 
45.919819084893703

>  <compound_id>  (64) 
1709

>  <target_id>  (64) 
1

>  <reference_id>  (64) 
139

>  <inspiration_ids>  (64) 
[99, 139]

>  <energy_score>  (64) 
-64.20481795266306

>  <distance_score>  (64) 
2.697043540831052

>  <path>  (64) 
/opt/xchem-fragalysis-2/maxwin/BulkDock/SCRATCH/505734/C1709-P139/C1709-P139.minimised.mol

>  <scratch_subdir>  (64) 
/opt/xchem-fragalysis-2/maxwin/BulkDock/SCRATCH/505734/C1709-P139

>  <fragmenstein_runtime>  (64) 
11.709356307983398

>  <fragmenstein_outcome>  (64) 
too moved

>  <fragmenstein_mode>  (64) 
expansion

>  <fragmenstein_error>  (64) 


$$$$
C3138-P99
     RDKit          3D

 62 65  0  0  0  0  0  0  0  0999 V2000
  -11.8908    5.4243   12.5920 O   0  0  0  0  0  0  0  0  0  0  0  0
  -12.9718    5.0106   12.9722 C   0  0  0  0  0  0  0  0  0  0  0  0
  -13.8607    5.8211   13.5756 O   0  0  0  0  0  0  0  0  0  0  0  0
  -13.4813    3.6274   12.8236 C   0  0  0  0  0  0  0  0  0  0  0  0
  -14.6030    3.1749   13.5296 C   0  0  0  0  0  0  0  0  0  0  0  0
  -15.0316    1.8573   13.4354 C   0  0  0  0  0  0  0  0  0  0  0  0
  -14.3340    0.9862   12.6222 C   0  0  0  0  0  0  0  0  0  0  0  0
  -13.2280    1.4229   11.8880 C   0  0  0  0  0  0  0  0  0  0  0  0
  -12.5080    0.4523   11.1838 N   0  0  0  0  0  0  0  0  0  0  0  0
  -12.0750    0.5724    9.8704 C   0  0  0  0  0  0  0  0  0  0  0  0
  -12.9119    0.9914    8.9157 N   0  0  0  0  0  0  0  0  0  0  0  0
  -12.4224    1.0251    7.6606 C   0  0  0  0  0  0  0  0  0  0  0  0
  -11.1330    0.6776    7.3025 C   0  0  0  0  0  0  0  0  0  0  0  0
  -10.6549    0.8956    6.0119 N   0  0  0  0  0  0  0  0  0  0  0  0
   -9.3095    0.4667    5.6429 C   0  0  0  0  0  0  0  0  0  0  0  0
   -8.2587    1.5256    6.0167 C   0  0  0  0  0  0  0  0  0  0  0  0
   -6.7876    1.1266    5.7255 C   0  0  0  0  0  0  0  0  0  0  0  0
   -5.8478    2.1806    6.1885 N   0  0  0  0  0  0  0  0  0  0  0  0
   -5.4469    1.9309    7.5721 C   0  0  0  0  0  0  0  0  0  0  0  0
   -4.6693    0.6032    7.7904 C   0  0  0  0  0  0  0  0  0  0  0  0
   -4.9855   -0.4186    6.7105 C   0  0  0  0  0  0  0  0  0  0  0  0
   -6.4561   -0.2137    6.4011 C   0  0  0  0  0  0  0  0  0  0  0  0
   -7.0057   -1.3504    5.7851 N   0  0  0  0  0  0  0  0  0  0  0  0
   -7.2461   -1.6650    4.2919 C   0  0  0  0  0  0  0  0  0  0  0  0
   -6.9563   -1.0648    3.3392 O   0  0  0  0  0  0  0  0  0  0  0  0
   -7.9524   -2.9710    4.3138 C   0  0  0  0  0  0  0  0  0  0  0  0
   -9.2839   -2.8733    4.7578 C   0  0  0  0  0  0  0  0  0  0  0  0
   -9.6731   -3.5103    5.9305 C   0  0  0  0  0  0  0  0  0  0  0  0
   -8.7425   -4.2685    6.6203 C   0  0  0  0  0  0  0  0  0  0  0  0
   -7.4872   -4.4932    6.0698 C   0  0  0  0  0  0  0  0  0  0  0  0
   -7.0979   -3.9131    4.8731 C   0  0  0  0  0  0  0  0  0  0  0  0
  -10.3726    0.2779    8.3872 C   0  0  0  0  0  0  0  0  0  0  0  0
  -10.8089    0.2014    9.6584 N   0  0  0  0  0  0  0  0  0  0  0  0
  -12.7895    2.7429   11.9994 C   0  0  0  0  0  0  0  0  0  0  0  0
  -13.3491    6.6350   13.7566 H   0  0  0  0  0  0  0  0  0  0  0  0
  -15.1267    3.8534   14.1989 H   0  0  0  0  0  0  0  0  0  0  0  0
  -15.8895    1.5143   14.0052 H   0  0  0  0  0  0  0  0  0  0  0  0
  -14.6611   -0.0460   12.5401 H   0  0  0  0  0  0  0  0  0  0  0  0
  -11.6753    0.1851   11.6905 H   0  0  0  0  0  0  0  0  0  0  0  0
  -13.1241    1.3936    6.9181 H   0  0  0  0  0  0  0  0  0  0  0  0
  -11.3583    0.6803    5.3063 H   0  0  0  0  0  0  0  0  0  0  0  0
   -9.1310   -0.4941    6.1157 H   0  0  0  0  0  0  0  0  0  0  0  0
   -9.2869    0.3217    4.5575 H   0  0  0  0  0  0  0  0  0  0  0  0
   -8.4882    2.4485    5.4663 H   0  0  0  0  0  0  0  0  0  0  0  0
   -8.3631    1.7900    7.0756 H   0  0  0  0  0  0  0  0  0  0  0  0
   -6.6593    1.0593    4.6408 H   0  0  0  0  0  0  0  0  0  0  0  0
   -6.3170    3.0873    6.1233 H   0  0  0  0  0  0  0  0  0  0  0  0
   -4.8204    2.7813    7.8565 H   0  0  0  0  0  0  0  0  0  0  0  0
   -6.3324    1.9539    8.2158 H   0  0  0  0  0  0  0  0  0  0  0  0
   -3.5918    0.7578    7.8872 H   0  0  0  0  0  0  0  0  0  0  0  0
   -4.9827    0.1751    8.7500 H   0  0  0  0  0  0  0  0  0  0  0  0
   -4.3799   -0.2924    5.8082 H   0  0  0  0  0  0  0  0  0  0  0  0
   -4.7813   -1.4281    7.0882 H   0  0  0  0  0  0  0  0  0  0  0  0
   -6.9684   -0.2212    7.3763 H   0  0  0  0  0  0  0  0  0  0  0  0
   -7.3170   -2.1309    6.3500 H   0  0  0  0  0  0  0  0  0  0  0  0
   -9.9620   -2.1526    4.3058 H   0  0  0  0  0  0  0  0  0  0  0  0
  -10.6647   -3.3410    6.3444 H   0  0  0  0  0  0  0  0  0  0  0  0
   -8.9717   -4.6786    7.5931 H   0  0  0  0  0  0  0  0  0  0  0  0
   -6.7805   -5.0957    6.5950 H   0  0  0  0  0  0  0  0  0  0  0  0
   -6.0639   -3.9880    4.5473 H   0  0  0  0  0  0  0  0  0  0  0  0
   -9.3331   -0.0096    8.2842 H   0  0  0  0  0  0  0  0  0  0  0  0
  -11.9019    3.0755   11.4673 H   0  0  0  0  0  0  0  0  0  0  0  0
  1  2  2  0
  2  3  1  0
  2  4  1  0
  4  5  2  0
  5  6  1  0
  6  7  2  0
  7  8  1  0
  8  9  1  0
  9 10  1  0
 10 11  2  0
 11 12  1  0
 12 13  2  0
 13 14  1  0
 14 15  1  0
 15 16  1  0
 16 17  1  0
 17 18  1  0
 18 19  1  0
 19 20  1  0
 20 21  1  0
 21 22  1  0
 22 23  1  0
 23 24  1  0
 24 25  2  0
 24 26  1  0
 26 27  2  0
 27 28  1  0
 28 29  2  0
 29 30  1  0
 30 31  2  0
 13 32  1  0
 32 33  2  0
  8 34  2  0
 34  4  1  0
 33 10  1  0
 22 17  1  0
 31 26  1  0
  3 35  1  0
  5 36  1  0
  6 37  1  0
  7 38  1  0
  9 39  1  0
 12 40  1  0
 14 41  1  0
 15 42  1  0
 15 43  1  0
 16 44  1  0
 16 45  1  0
 17 46  1  0
 18 47  1  0
 19 48  1  0
 19 49  1  0
 20 50  1  0
 20 51  1  0
 21 52  1  0
 21 53  1  0
 22 54  1  0
 23 55  1  0
 27 56  1  0
 28 57  1  0
 29 58  1  0
 30 59  1  0
 31 60  1  0
 32 61  1  0
 34 62  1  0
M  END
>  <Energy>  (65) 
91.71568396894709

>  <compound_id>  (65) 
3138

>  <target_id>  (65) 
1

>  <reference_id>  (65) 
99

>  <inspiration_ids>  (65) 
[99, 143]

>  <energy_score>  (65) 
26.64322006448549

>  <distance_score>  (65) 
2.952122644330455

>  <path>  (65) 
/opt/xchem-fragalysis-2/maxwin/BulkDock/SCRATCH/505734/C3138-P99/C3138-P99.minimised.mol

>  <scratch_subdir>  (65) 
/opt/xchem-fragalysis-2/maxwin/BulkDock/SCRATCH/505734/C3138-P99

>  <fragmenstein_runtime>  (65) 
199.1376874446869

>  <fragmenstein_outcome>  (65) 
too moved

>  <fragmenstein_mode>  (65) 
expansion

>  <fragmenstein_error>  (65) 


$$$$
C3138-P143
     RDKit          3D

 62 65  0  0  0  0  0  0  0  0999 V2000
  -16.8775   -0.4511   10.8162 O   0  0  0  0  0  0  0  0  0  0  0  0
  -16.3640   -0.3011   11.9072 C   0  0  0  0  0  0  0  0  0  0  0  0
  -16.7024   -1.0435   12.9778 O   0  0  0  0  0  0  0  0  0  0  0  0
  -15.2484    0.6026   12.2420 C   0  0  0  0  0  0  0  0  0  0  0  0
  -15.0088    0.9948   13.5562 C   0  0  0  0  0  0  0  0  0  0  0  0
  -13.9057    1.7780   13.8694 C   0  0  0  0  0  0  0  0  0  0  0  0
  -13.0468    2.2004   12.8657 C   0  0  0  0  0  0  0  0  0  0  0  0
  -13.2725    1.8115   11.5482 C   0  0  0  0  0  0  0  0  0  0  0  0
  -12.4025    2.2739   10.5424 N   0  0  0  0  0  0  0  0  0  0  0  0
  -11.9456    1.3935    9.5542 C   0  0  0  0  0  0  0  0  0  0  0  0
  -12.2640    1.7282    8.2979 N   0  0  0  0  0  0  0  0  0  0  0  0
  -11.7441    0.9599    7.3215 C   0  0  0  0  0  0  0  0  0  0  0  0
  -10.8821   -0.0931    7.5365 C   0  0  0  0  0  0  0  0  0  0  0  0
  -10.1050   -0.6780    6.5245 N   0  0  0  0  0  0  0  0  0  0  0  0
   -9.1438    0.2374    5.8950 C   0  0  0  0  0  0  0  0  0  0  0  0
   -7.9896    0.6498    6.8257 C   0  0  0  0  0  0  0  0  0  0  0  0
   -6.6014    0.0056    6.5783 C   0  0  0  0  0  0  0  0  0  0  0  0
   -5.6304    0.6908    7.4486 N   0  0  0  0  0  0  0  0  0  0  0  0
   -4.7560   -0.2293    8.1906 C   0  0  0  0  0  0  0  0  0  0  0  0
   -4.1091   -1.2703    7.3029 C   0  0  0  0  0  0  0  0  0  0  0  0
   -5.1553   -2.0929    6.5841 C   0  0  0  0  0  0  0  0  0  0  0  0
   -6.5677   -1.5219    6.7741 C   0  0  0  0  0  0  0  0  0  0  0  0
   -7.4161   -2.1443    5.8295 N   0  0  0  0  0  0  0  0  0  0  0  0
   -8.2368   -3.4221    5.9277 C   0  0  0  0  0  0  0  0  0  0  0  0
   -8.4137   -4.1347    6.8238 O   0  0  0  0  0  0  0  0  0  0  0  0
   -8.8410   -3.6336    4.6017 C   0  0  0  0  0  0  0  0  0  0  0  0
  -10.1828   -3.9619    4.5062 C   0  0  0  0  0  0  0  0  0  0  0  0
  -10.7081   -4.2289    3.2401 C   0  0  0  0  0  0  0  0  0  0  0  0
   -9.9156   -4.1294    2.0942 C   0  0  0  0  0  0  0  0  0  0  0  0
   -8.5726   -3.7800    2.2075 C   0  0  0  0  0  0  0  0  0  0  0  0
   -8.0257   -3.5439    3.4605 C   0  0  0  0  0  0  0  0  0  0  0  0
  -10.6997   -0.3915    8.8749 C   0  0  0  0  0  0  0  0  0  0  0  0
  -11.2151    0.3241    9.8937 N   0  0  0  0  0  0  0  0  0  0  0  0
  -14.3893    1.0223   11.2330 C   0  0  0  0  0  0  0  0  0  0  0  0
  -17.1940   -1.8137   12.6013 H   0  0  0  0  0  0  0  0  0  0  0  0
  -15.6859    0.6960   14.3486 H   0  0  0  0  0  0  0  0  0  0  0  0
  -13.7078    2.0741   14.8947 H   0  0  0  0  0  0  0  0  0  0  0  0
  -12.1899    2.8222   13.1187 H   0  0  0  0  0  0  0  0  0  0  0  0
  -12.9004    2.9622    9.9808 H   0  0  0  0  0  0  0  0  0  0  0  0
  -12.0009    1.2672    6.3119 H   0  0  0  0  0  0  0  0  0  0  0  0
   -9.6644   -1.5361    6.8618 H   0  0  0  0  0  0  0  0  0  0  0  0
   -8.7756   -0.2006    4.9634 H   0  0  0  0  0  0  0  0  0  0  0  0
   -9.6702    1.1445    5.5697 H   0  0  0  0  0  0  0  0  0  0  0  0
   -7.8678    1.7354    6.6943 H   0  0  0  0  0  0  0  0  0  0  0  0
   -8.2602    0.5104    7.8788 H   0  0  0  0  0  0  0  0  0  0  0  0
   -6.3135    0.2357    5.5435 H   0  0  0  0  0  0  0  0  0  0  0  0
   -6.1554    1.2571    8.1146 H   0  0  0  0  0  0  0  0  0  0  0  0
   -5.3402   -0.7104    8.9743 H   0  0  0  0  0  0  0  0  0  0  0  0
   -3.9631    0.3226    8.6974 H   0  0  0  0  0  0  0  0  0  0  0  0
   -3.4769   -0.7921    6.5533 H   0  0  0  0  0  0  0  0  0  0  0  0
   -3.4492   -1.9178    7.8899 H   0  0  0  0  0  0  0  0  0  0  0  0
   -4.8980   -2.1404    5.5169 H   0  0  0  0  0  0  0  0  0  0  0  0
   -5.1292   -3.1321    6.9320 H   0  0  0  0  0  0  0  0  0  0  0  0
   -6.9445   -1.7902    7.7682 H   0  0  0  0  0  0  0  0  0  0  0  0
   -7.4136   -1.8180    4.8723 H   0  0  0  0  0  0  0  0  0  0  0  0
  -10.8133   -4.0316    5.3872 H   0  0  0  0  0  0  0  0  0  0  0  0
  -11.7449   -4.5326    3.1552 H   0  0  0  0  0  0  0  0  0  0  0  0
  -10.3434   -4.3453    1.1197 H   0  0  0  0  0  0  0  0  0  0  0  0
   -7.9490   -3.7171    1.3188 H   0  0  0  0  0  0  0  0  0  0  0  0
   -6.9583   -3.3529    3.5408 H   0  0  0  0  0  0  0  0  0  0  0  0
  -10.0551   -1.2096    9.1816 H   0  0  0  0  0  0  0  0  0  0  0  0
  -14.5759    0.7139   10.2058 H   0  0  0  0  0  0  0  0  0  0  0  0
  1  2  2  0
  2  3  1  0
  2  4  1  0
  4  5  2  0
  5  6  1  0
  6  7  2  0
  7  8  1  0
  8  9  1  0
  9 10  1  0
 10 11  2  0
 11 12  1  0
 12 13  2  0
 13 14  1  0
 14 15  1  0
 15 16  1  0
 16 17  1  0
 17 18  1  0
 18 19  1  0
 19 20  1  0
 20 21  1  0
 21 22  1  0
 22 23  1  0
 23 24  1  0
 24 25  2  0
 24 26  1  0
 26 27  2  0
 27 28  1  0
 28 29  2  0
 29 30  1  0
 30 31  2  0
 13 32  1  0
 32 33  2  0
  8 34  2  0
 34  4  1  0
 33 10  1  0
 22 17  1  0
 31 26  1  0
  3 35  1  0
  5 36  1  0
  6 37  1  0
  7 38  1  0
  9 39  1  0
 12 40  1  0
 14 41  1  0
 15 42  1  0
 15 43  1  0
 16 44  1  0
 16 45  1  0
 17 46  1  0
 18 47  1  0
 19 48  1  0
 19 49  1  0
 20 50  1  0
 20 51  1  0
 21 52  1  0
 21 53  1  0
 22 54  1  0
 23 55  1  0
 27 56  1  0
 28 57  1  0
 29 58  1  0
 30 59  1  0
 31 60  1  0
 32 61  1  0
 34 62  1  0
M  END
>  <Energy>  (66) 
59.283392050224379

>  <compound_id>  (66) 
3138

>  <target_id>  (66) 
1

>  <reference_id>  (66) 
143

>  <inspiration_ids>  (66) 
[99, 143]

>  <energy_score>  (66) 
-5.7890718542416835

>  <distance_score>  (66) 
2.6843926650323864

>  <path>  (66) 
/opt/xchem-fragalysis-2/maxwin/BulkDock/SCRATCH/505734/C3138-P143/C3138-P143.minimised.mol

>  <scratch_subdir>  (66) 
/opt/xchem-fragalysis-2/maxwin/BulkDock/SCRATCH/505734/C3138-P143

>  <fragmenstein_runtime>  (66) 
194.42701840400696

>  <fragmenstein_outcome>  (66) 
too moved

>  <fragmenstein_mode>  (66) 
expansion

>  <fragmenstein_error>  (66) 


$$$$
C2202-P99
     RDKit          3D

 52 55  0  0  0  0  0  0  0  0999 V2000
  -12.0115    0.3337    5.0729 C   0  0  0  0  0  0  0  0  0  0  0  0
  -11.5402    1.4892    5.9060 C   0  0  0  0  0  0  0  0  0  0  0  0
  -10.1886    1.8648    5.7593 C   0  0  0  0  0  0  0  0  0  0  0  0
   -9.6513    2.9430    6.4613 C   0  0  0  0  0  0  0  0  0  0  0  0
  -10.4581    3.6761    7.3216 C   0  0  0  0  0  0  0  0  0  0  0  0
  -11.7926    3.3105    7.5039 C   0  0  0  0  0  0  0  0  0  0  0  0
  -12.3323    2.2026    6.8277 C   0  0  0  0  0  0  0  0  0  0  0  0
  -13.6652    1.8263    7.1906 N   0  0  0  0  0  0  0  0  0  0  0  0
  -14.6664    0.3169    6.7371 C   0  0  0  0  0  0  0  0  0  0  0  0
  -16.3385    0.4675    7.3865 C   0  0  0  0  0  0  0  0  0  0  0  0
  -16.3219    1.4530    6.6088 C   0  0  0  0  0  0  0  0  0  0  0  0
  -17.1733    1.6752    5.6079 O   0  0  0  0  0  0  0  0  0  0  0  0
  -15.4030    2.1523    6.9177 N   0  0  0  0  0  0  0  0  0  0  0  0
  -14.7525    0.9615    8.6262 C   0  0  0  0  0  0  0  0  0  0  0  0
  -13.2720    0.8092    9.0534 N   0  0  0  0  0  0  0  0  0  0  0  0
  -12.5524   -0.2407    9.0347 C   0  0  0  0  0  0  0  0  0  0  0  0
  -12.9834   -1.4837    8.8118 O   0  0  0  0  0  0  0  0  0  0  0  0
  -11.0903   -0.1035    9.1659 C   0  0  0  0  0  0  0  0  0  0  0  0
  -10.6251    0.9909    9.8954 C   0  0  0  0  0  0  0  0  0  0  0  0
   -9.2880    1.3387    9.8318 C   0  0  0  0  0  0  0  0  0  0  0  0
   -8.4083    0.5890    9.0539 C   0  0  0  0  0  0  0  0  0  0  0  0
   -8.8435   -0.5177    8.3158 C   0  0  0  0  0  0  0  0  0  0  0  0
   -7.9870   -1.2852    7.5177 N   0  0  0  0  0  0  0  0  0  0  0  0
   -6.6076   -1.2938    7.3460 C   0  0  0  0  0  0  0  0  0  0  0  0
   -5.7983   -0.5101    8.0776 N   0  0  0  0  0  0  0  0  0  0  0  0
   -4.4736   -0.6179    7.8864 C   0  0  0  0  0  0  0  0  0  0  0  0
   -3.9180   -1.4617    6.9661 C   0  0  0  0  0  0  0  0  0  0  0  0
   -4.8143   -2.2146    6.2514 C   0  0  0  0  0  0  0  0  0  0  0  0
   -6.1478   -2.1597    6.4282 N   0  0  0  0  0  0  0  0  0  0  0  0
  -10.2049   -0.8589    8.3873 C   0  0  0  0  0  0  0  0  0  0  0  0
  -16.2747    2.0042    8.5298 N   0  0  0  0  0  0  0  0  0  0  0  0
  -14.6941    2.8286    8.4075 N   0  0  0  0  0  0  0  0  0  0  0  0
  -11.3443    0.1634    4.2198 H   0  0  0  0  0  0  0  0  0  0  0  0
  -12.9960    0.5363    4.6428 H   0  0  0  0  0  0  0  0  0  0  0  0
  -12.0232   -0.5857    5.6640 H   0  0  0  0  0  0  0  0  0  0  0  0
   -9.5349    1.3078    5.0902 H   0  0  0  0  0  0  0  0  0  0  0  0
   -8.6044    3.2054    6.3395 H   0  0  0  0  0  0  0  0  0  0  0  0
  -10.0462    4.5149    7.8760 H   0  0  0  0  0  0  0  0  0  0  0  0
  -12.3923    3.8726    8.2178 H   0  0  0  0  0  0  0  0  0  0  0  0
  -14.0084   -0.5198    6.5574 H   0  0  0  0  0  0  0  0  0  0  0  0
  -16.9228    2.5368    5.2351 H   0  0  0  0  0  0  0  0  0  0  0  0
  -15.1635   -0.0827    8.7428 H   0  0  0  0  0  0  0  0  0  0  0  0
  -15.0915    1.3459    9.6552 H   0  0  0  0  0  0  0  0  0  0  0  0
  -13.9335   -1.5911    8.9788 H   0  0  0  0  0  0  0  0  0  0  0  0
  -11.3116    1.6138   10.4647 H   0  0  0  0  0  0  0  0  0  0  0  0
   -8.9421    2.2146   10.3682 H   0  0  0  0  0  0  0  0  0  0  0  0
   -7.3750    0.9128    9.0193 H   0  0  0  0  0  0  0  0  0  0  0  0
   -8.4145   -1.9993    6.9489 H   0  0  0  0  0  0  0  0  0  0  0  0
   -3.8572    0.0104    8.5211 H   0  0  0  0  0  0  0  0  0  0  0  0
   -2.8511   -1.5228    6.8246 H   0  0  0  0  0  0  0  0  0  0  0  0
   -4.4830   -2.9134    5.4905 H   0  0  0  0  0  0  0  0  0  0  0  0
  -10.5931   -1.6864    7.7995 H   0  0  0  0  0  0  0  0  0  0  0  0
  1  2  1  0
  2  3  2  0
  3  4  1  0
  4  5  2  0
  5  6  1  0
  6  7  2  0
  7  8  1  0
  8  9  1  0
  9 10  2  0
 10 11  1  0
 11 12  1  0
 11 13  2  3
 13 14  1  0
 14 15  1  0
 15 16  2  3
 16 17  1  0
 16 18  1  0
 18 19  2  0
 19 20  1  0
 20 21  2  0
 21 22  1  0
 22 23  1  0
 23 24  1  0
 24 25  2  0
 25 26  1  0
 26 27  2  0
 27 28  1  0
 28 29  2  0
 22 30  2  0
 10 31  1  0
 31 32  2  0
  7  2  1  0
 32  8  1  0
 30 18  1  0
 29 24  1  0
  1 33  1  0
  1 34  1  0
  1 35  1  0
  3 36  1  0
  4 37  1  0
  5 38  1  0
  6 39  1  0
  9 40  1  0
 12 41  1  0
 14 42  1  0
 14 43  1  0
 17 44  1  0
 19 45  1  0
 20 46  1  0
 21 47  1  0
 23 48  1  0
 26 49  1  0
 27 50  1  0
 28 51  1  0
 30 52  1  0
M  END
>  <Energy>  (67) 
1094.6242021342146

>  <compound_id>  (67) 
2202

>  <target_id>  (67) 
1

>  <reference_id>  (67) 
99

>  <inspiration_ids>  (67) 
[99, 179]

>  <energy_score>  (67) 
1064.9544137503578

>  <distance_score>  (67) 
2.9200929306523977

>  <path>  (67) 
/opt/xchem-fragalysis-2/maxwin/BulkDock/SCRATCH/505734/C2202-P99/C2202-P99.minimised.mol

>  <scratch_subdir>  (67) 
/opt/xchem-fragalysis-2/maxwin/BulkDock/SCRATCH/505734/C2202-P99

>  <fragmenstein_runtime>  (67) 
7.0783021450042725

>  <fragmenstein_outcome>  (67) 
too moved

>  <fragmenstein_mode>  (67) 
expansion

>  <fragmenstein_error>  (67) 


$$$$
C2202-P179
     RDKit          3D

 52 55  0  0  0  0  0  0  0  0999 V2000
  -11.7352    1.6146    5.8876 C   0  0  0  0  0  0  0  0  0  0  0  0
  -10.6341    1.8704    6.8828 C   0  0  0  0  0  0  0  0  0  0  0  0
   -9.3385    1.8745    6.3356 C   0  0  0  0  0  0  0  0  0  0  0  0
   -8.2795    2.4359    7.0270 C   0  0  0  0  0  0  0  0  0  0  0  0
   -8.5211    3.0227    8.2598 C   0  0  0  0  0  0  0  0  0  0  0  0
   -9.7637    2.9137    8.8917 C   0  0  0  0  0  0  0  0  0  0  0  0
  -10.8144    2.2954    8.2201 C   0  0  0  0  0  0  0  0  0  0  0  0
  -12.0572    2.1801    8.8902 N   0  0  0  0  0  0  0  0  0  0  0  0
  -12.7304    0.9978    9.1342 C   0  0  0  0  0  0  0  0  0  0  0  0
  -13.9763    1.2331    8.5823 C   0  0  0  0  0  0  0  0  0  0  0  0
  -14.8978    0.3190    7.8979 C   0  0  0  0  0  0  0  0  0  0  0  0
  -16.1797    0.7343    7.8743 O   0  0  0  0  0  0  0  0  0  0  0  0
  -14.6528   -0.7736    7.2454 N   0  0  0  0  0  0  0  0  0  0  0  0
  -13.2753   -1.2488    7.2874 C   0  0  0  0  0  0  0  0  0  0  0  0
  -12.9380   -2.2731    6.3059 N   0  0  0  0  0  0  0  0  0  0  0  0
  -11.6863   -2.5028    6.0646 C   0  0  0  0  0  0  0  0  0  0  0  0
  -11.3449   -3.4477    5.1708 O   0  0  0  0  0  0  0  0  0  0  0  0
  -10.4568   -1.8750    6.6573 C   0  0  0  0  0  0  0  0  0  0  0  0
  -10.4061   -1.3729    7.9552 C   0  0  0  0  0  0  0  0  0  0  0  0
   -9.2687   -0.8245    8.5234 C   0  0  0  0  0  0  0  0  0  0  0  0
   -8.1093   -0.8039    7.7902 C   0  0  0  0  0  0  0  0  0  0  0  0
   -8.0930   -1.3188    6.4910 C   0  0  0  0  0  0  0  0  0  0  0  0
   -6.9242   -1.2825    5.6976 N   0  0  0  0  0  0  0  0  0  0  0  0
   -5.6747   -1.1480    6.2928 C   0  0  0  0  0  0  0  0  0  0  0  0
   -5.2767    0.0356    6.7918 N   0  0  0  0  0  0  0  0  0  0  0  0
   -4.1574    0.0295    7.5270 C   0  0  0  0  0  0  0  0  0  0  0  0
   -3.4326   -1.1028    7.7655 C   0  0  0  0  0  0  0  0  0  0  0  0
   -3.9075   -2.2447    7.1798 C   0  0  0  0  0  0  0  0  0  0  0  0
   -5.0033   -2.2930    6.4217 N   0  0  0  0  0  0  0  0  0  0  0  0
   -9.2749   -1.8248    5.9190 C   0  0  0  0  0  0  0  0  0  0  0  0
  -14.1517    2.6016    8.5963 N   0  0  0  0  0  0  0  0  0  0  0  0
  -12.9699    3.1727    8.8299 N   0  0  0  0  0  0  0  0  0  0  0  0
  -11.6800    2.3683    5.0926 H   0  0  0  0  0  0  0  0  0  0  0  0
  -12.7359    1.6987    6.3036 H   0  0  0  0  0  0  0  0  0  0  0  0
  -11.6211    0.6311    5.4239 H   0  0  0  0  0  0  0  0  0  0  0  0
   -9.1667    1.5140    5.3226 H   0  0  0  0  0  0  0  0  0  0  0  0
   -7.2930    2.4830    6.5745 H   0  0  0  0  0  0  0  0  0  0  0  0
   -7.7247    3.5954    8.7174 H   0  0  0  0  0  0  0  0  0  0  0  0
   -9.9007    3.3419    9.8820 H   0  0  0  0  0  0  0  0  0  0  0  0
  -12.1889    0.1145    9.3996 H   0  0  0  0  0  0  0  0  0  0  0  0
  -16.6698    0.0778    7.3559 H   0  0  0  0  0  0  0  0  0  0  0  0
  -13.1381   -1.6832    8.2768 H   0  0  0  0  0  0  0  0  0  0  0  0
  -12.6179   -0.4096    7.1089 H   0  0  0  0  0  0  0  0  0  0  0  0
  -12.1401   -3.8900    4.8102 H   0  0  0  0  0  0  0  0  0  0  0  0
  -11.2481   -1.4398    8.6138 H   0  0  0  0  0  0  0  0  0  0  0  0
   -9.2941   -0.4228    9.5313 H   0  0  0  0  0  0  0  0  0  0  0  0
   -7.2312   -0.3631    8.2500 H   0  0  0  0  0  0  0  0  0  0  0  0
   -6.8605   -2.1649    5.1964 H   0  0  0  0  0  0  0  0  0  0  0  0
   -3.8527    0.9883    7.9309 H   0  0  0  0  0  0  0  0  0  0  0  0
   -2.5498   -1.0985    8.3832 H   0  0  0  0  0  0  0  0  0  0  0  0
   -3.4174   -3.2014    7.3309 H   0  0  0  0  0  0  0  0  0  0  0  0
   -9.2610   -2.1904    4.8950 H   0  0  0  0  0  0  0  0  0  0  0  0
  1  2  1  0
  2  3  2  0
  3  4  1  0
  4  5  2  0
  5  6  1  0
  6  7  2  0
  7  8  1  0
  8  9  1  0
  9 10  2  0
 10 11  1  0
 11 12  1  0
 11 13  2  3
 13 14  1  0
 14 15  1  0
 15 16  2  3
 16 17  1  0
 16 18  1  0
 18 19  2  0
 19 20  1  0
 20 21  2  0
 21 22  1  0
 22 23  1  0
 23 24  1  0
 24 25  2  0
 25 26  1  0
 26 27  2  0
 27 28  1  0
 28 29  2  0
 22 30  2  0
 10 31  1  0
 31 32  2  0
  7  2  1  0
 32  8  1  0
 30 18  1  0
 29 24  1  0
  1 33  1  0
  1 34  1  0
  1 35  1  0
  3 36  1  0
  4 37  1  0
  5 38  1  0
  6 39  1  0
  9 40  1  0
 12 41  1  0
 14 42  1  0
 14 43  1  0
 17 44  1  0
 19 45  1  0
 20 46  1  0
 21 47  1  0
 23 48  1  0
 26 49  1  0
 27 50  1  0
 28 51  1  0
 30 52  1  0
M  END
>  <Energy>  (68) 
24.614222546512522

>  <compound_id>  (68) 
2202

>  <target_id>  (68) 
1

>  <reference_id>  (68) 
179

>  <inspiration_ids>  (68) 
[99, 179]

>  <energy_score>  (68) 
0.9876560954727438

>  <distance_score>  (68) 
1.9132904975765235

>  <path>  (68) 
/opt/xchem-fragalysis-2/maxwin/BulkDock/SCRATCH/505734/C2202-P179/C2202-P179.minimised.mol

>  <scratch_subdir>  (68) 
/opt/xchem-fragalysis-2/maxwin/BulkDock/SCRATCH/505734/C2202-P179

>  <fragmenstein_runtime>  (68) 
4.617231369018555

>  <fragmenstein_outcome>  (68) 
too moved

>  <fragmenstein_mode>  (68) 
expansion

>  <fragmenstein_error>  (68) 


$$$$
C3140-P99
     RDKit          3D

 47 50  0  0  0  0  0  0  0  0999 V2000
  -13.5324    1.5995    4.5406 O   0  0  0  0  0  0  0  0  0  0  0  0
  -12.6089    1.7622    5.3197 C   0  0  0  0  0  0  0  0  0  0  0  0
  -11.6687    2.7159    5.1625 O   0  0  0  0  0  0  0  0  0  0  0  0
  -12.4134    0.9247    6.5242 C   0  0  0  0  0  0  0  0  0  0  0  0
  -12.5929   -0.4531    6.4191 C   0  0  0  0  0  0  0  0  0  0  0  0
  -12.4765   -1.2471    7.5548 C   0  0  0  0  0  0  0  0  0  0  0  0
  -12.1881   -0.6643    8.7916 C   0  0  0  0  0  0  0  0  0  0  0  0
  -12.0064    0.7117    8.9199 C   0  0  0  0  0  0  0  0  0  0  0  0
  -11.6495    1.2336   10.1953 N   0  0  0  0  0  0  0  0  0  0  0  0
  -11.5569    2.6140   10.4132 C   0  0  0  0  0  0  0  0  0  0  0  0
  -12.6813    3.3354   10.4042 N   0  0  0  0  0  0  0  0  0  0  0  0
  -12.5643    4.6723   10.3741 C   0  0  0  0  0  0  0  0  0  0  0  0
  -11.3581    5.3114   10.2937 C   0  0  0  0  0  0  0  0  0  0  0  0
  -10.2527    4.4933   10.3088 C   0  0  0  0  0  0  0  0  0  0  0  0
   -8.9818    5.0458   10.0474 N   0  0  0  0  0  0  0  0  0  0  0  0
   -8.6536    4.8696    8.6339 C   0  0  0  0  0  0  0  0  0  0  0  0
   -8.2661    3.4778    8.4787 N   0  0  0  0  0  0  0  0  0  0  0  0
   -8.0209    2.9703    6.9181 S   0  0  0  0  0  0  0  0  0  0  0  0
   -9.3367    2.7236    6.3611 O   0  0  0  0  0  0  0  0  0  0  0  0
   -7.0757    3.8565    6.2803 O   0  0  0  0  0  0  0  0  0  0  0  0
   -7.2137    1.4069    7.1788 C   0  0  0  0  0  0  0  0  0  0  0  0
   -5.8326    1.3622    7.3998 C   0  0  0  0  0  0  0  0  0  0  0  0
   -5.1463    0.1411    7.4106 C   0  0  0  0  0  0  0  0  0  0  0  0
   -5.8652   -1.0362    7.1562 C   0  0  0  0  0  0  0  0  0  0  0  0
   -5.3191   -2.2817    6.9684 N   0  0  0  0  0  0  0  0  0  0  0  0
   -6.2868   -3.1169    6.6825 C   0  0  0  0  0  0  0  0  0  0  0  0
   -7.8857   -2.5454    6.8001 S   0  0  0  0  0  0  0  0  0  0  0  0
   -7.2556   -0.9670    7.0342 C   0  0  0  0  0  0  0  0  0  0  0  0
   -7.9641    0.2403    7.0504 C   0  0  0  0  0  0  0  0  0  0  0  0
  -10.3284    3.1515   10.4056 N   0  0  0  0  0  0  0  0  0  0  0  0
  -12.1211    1.5043    7.7680 C   0  0  0  0  0  0  0  0  0  0  0  0
  -10.8572    2.6137    5.7173 H   0  0  0  0  0  0  0  0  0  0  0  0
  -12.8394   -0.9147    5.4635 H   0  0  0  0  0  0  0  0  0  0  0  0
  -12.6073   -2.3234    7.4712 H   0  0  0  0  0  0  0  0  0  0  0  0
  -12.1021   -1.2918    9.6702 H   0  0  0  0  0  0  0  0  0  0  0  0
  -10.7296    0.8671   10.4242 H   0  0  0  0  0  0  0  0  0  0  0  0
  -13.5000    5.2228   10.3782 H   0  0  0  0  0  0  0  0  0  0  0  0
  -11.2788    6.3861   10.2111 H   0  0  0  0  0  0  0  0  0  0  0  0
   -8.3179    4.4103   10.4996 H   0  0  0  0  0  0  0  0  0  0  0  0
   -7.8058    5.5186    8.3930 H   0  0  0  0  0  0  0  0  0  0  0  0
   -9.4951    5.1402    7.9852 H   0  0  0  0  0  0  0  0  0  0  0  0
   -8.9591    2.8893    8.9517 H   0  0  0  0  0  0  0  0  0  0  0  0
   -5.2909    2.2938    7.5419 H   0  0  0  0  0  0  0  0  0  0  0  0
   -4.0719    0.0923    7.5550 H   0  0  0  0  0  0  0  0  0  0  0  0
   -6.1172   -4.1440    6.4091 H   0  0  0  0  0  0  0  0  0  0  0  0
   -9.0380    0.2506    6.8888 H   0  0  0  0  0  0  0  0  0  0  0  0
  -12.0209    2.5846    7.8239 H   0  0  0  0  0  0  0  0  0  0  0  0
  1  2  2  0
  2  3  1  0
  2  4  1  0
  4  5  2  0
  5  6  1  0
  6  7  2  0
  7  8  1  0
  8  9  1  0
  9 10  1  0
 10 11  2  0
 11 12  1  0
 12 13  2  0
 13 14  1  0
 14 15  1  0
 15 16  1  0
 16 17  1  0
 17 18  1  0
 18 19  2  0
 18 20  2  0
 18 21  1  0
 21 22  2  0
 22 23  1  0
 23 24  2  0
 24 25  1  0
 25 26  2  0
 26 27  1  0
 27 28  1  0
 28 29  2  0
 14 30  2  0
  8 31  2  0
 31  4  1  0
 30 10  1  0
 29 21  1  0
 28 24  1  0
  3 32  1  0
  5 33  1  0
  6 34  1  0
  7 35  1  0
  9 36  1  0
 12 37  1  0
 13 38  1  0
 15 39  1  0
 16 40  1  0
 16 41  1  0
 17 42  1  0
 22 43  1  0
 23 44  1  0
 26 45  1  0
 29 46  1  0
 31 47  1  0
M  END
>  <Energy>  (69) 
-198.07616222364055

>  <compound_id>  (69) 
3140

>  <target_id>  (69) 
1

>  <reference_id>  (69) 
99

>  <inspiration_ids>  (69) 
[99, 181]

>  <energy_score>  (69) 
-70.50256245657724

>  <distance_score>  (69) 
2.831136105394421

>  <path>  (69) 
/opt/xchem-fragalysis-2/maxwin/BulkDock/SCRATCH/505734/C3140-P99/C3140-P99.minimised.mol

>  <scratch_subdir>  (69) 
/opt/xchem-fragalysis-2/maxwin/BulkDock/SCRATCH/505734/C3140-P99

>  <fragmenstein_runtime>  (69) 
11.072494506835938

>  <fragmenstein_outcome>  (69) 
too moved

>  <fragmenstein_mode>  (69) 
expansion

>  <fragmenstein_error>  (69) 


$$$$
C3140-P181
     RDKit          3D

 47 50  0  0  0  0  0  0  0  0999 V2000
  -11.3672   -1.6073    5.2119 O   0  0  0  0  0  0  0  0  0  0  0  0
  -12.4121   -0.9817    5.2839 C   0  0  0  0  0  0  0  0  0  0  0  0
  -13.4423   -1.1513    4.4399 O   0  0  0  0  0  0  0  0  0  0  0  0
  -12.7601    0.0111    6.3269 C   0  0  0  0  0  0  0  0  0  0  0  0
  -13.9771    0.6980    6.3226 C   0  0  0  0  0  0  0  0  0  0  0  0
  -14.2636    1.6074    7.3360 C   0  0  0  0  0  0  0  0  0  0  0  0
  -13.3342    1.8378    8.3512 C   0  0  0  0  0  0  0  0  0  0  0  0
  -12.1199    1.1500    8.3839 C   0  0  0  0  0  0  0  0  0  0  0  0
  -11.1355    1.3720    9.3394 N   0  0  0  0  0  0  0  0  0  0  0  0
  -10.9071    2.3467   10.2957 C   0  0  0  0  0  0  0  0  0  0  0  0
  -11.6958    3.4078   10.4827 N   0  0  0  0  0  0  0  0  0  0  0  0
  -11.3318    4.2525   11.4627 C   0  0  0  0  0  0  0  0  0  0  0  0
  -10.2271    4.0714   12.2637 C   0  0  0  0  0  0  0  0  0  0  0  0
   -9.4604    2.9542   12.0043 C   0  0  0  0  0  0  0  0  0  0  0  0
   -8.3507    2.6551   12.8587 N   0  0  0  0  0  0  0  0  0  0  0  0
   -7.0085    1.3923   13.0898 C   0  0  0  0  0  0  0  0  0  0  0  0
   -6.5336   -0.1001   12.2312 N   0  0  0  0  0  0  0  0  0  0  0  0
   -4.5167   -0.3681   11.5483 S   0  0  0  0  0  0  0  0  0  0  0  0
   -3.4948   -0.7686   12.4825 O   0  0  0  0  0  0  0  0  0  0  0  0
   -3.4406    0.3860   12.2719 O   0  0  0  0  0  0  0  0  0  0  0  0
   -4.4759   -0.4725    9.4505 C   0  0  0  0  0  0  0  0  0  0  0  0
   -3.3907   -0.8725    8.6740 C   0  0  0  0  0  0  0  0  0  0  0  0
   -3.5646   -1.2440    7.3301 C   0  0  0  0  0  0  0  0  0  0  0  0
   -4.8284   -1.2162    6.7208 C   0  0  0  0  0  0  0  0  0  0  0  0
   -5.1173   -1.5685    5.4173 N   0  0  0  0  0  0  0  0  0  0  0  0
   -6.4107   -1.4534    5.2140 C   0  0  0  0  0  0  0  0  0  0  0  0
   -7.3488   -0.9284    6.5455 S   0  0  0  0  0  0  0  0  0  0  0  0
   -5.9158   -0.8226    7.4914 C   0  0  0  0  0  0  0  0  0  0  0  0
   -5.7706   -0.4545    8.8376 C   0  0  0  0  0  0  0  0  0  0  0  0
   -9.8057    2.1199   11.0111 N   0  0  0  0  0  0  0  0  0  0  0  0
  -11.8451    0.2339    7.3588 C   0  0  0  0  0  0  0  0  0  0  0  0
  -13.4836   -2.1204    4.2284 H   0  0  0  0  0  0  0  0  0  0  0  0
  -14.7109    0.5273    5.5390 H   0  0  0  0  0  0  0  0  0  0  0  0
  -15.2088    2.1432    7.3358 H   0  0  0  0  0  0  0  0  0  0  0  0
  -13.5810    2.5588    9.1255 H   0  0  0  0  0  0  0  0  0  0  0  0
  -10.3868    0.6950    9.3941 H   0  0  0  0  0  0  0  0  0  0  0  0
  -11.9844    5.1098   11.5948 H   0  0  0  0  0  0  0  0  0  0  0  0
   -9.9847    4.7780   13.0427 H   0  0  0  0  0  0  0  0  0  0  0  0
   -8.0827    3.5413   13.3352 H   0  0  0  0  0  0  0  0  0  0  0  0
   -7.1115    0.9587   14.0146 H   0  0  0  0  0  0  0  0  0  0  0  0
   -6.2930    2.0662   13.4301 H   0  0  0  0  0  0  0  0  0  0  0  0
   -6.3661   -0.6437   13.0763 H   0  0  0  0  0  0  0  0  0  0  0  0
   -2.3863   -0.9917    9.0380 H   0  0  0  0  0  0  0  0  0  0  0  0
   -2.7191   -1.6089    6.7597 H   0  0  0  0  0  0  0  0  0  0  0  0
   -6.8684   -1.6817    4.2598 H   0  0  0  0  0  0  0  0  0  0  0  0
   -6.6751   -0.2188    9.3903 H   0  0  0  0  0  0  0  0  0  0  0  0
  -10.9049   -0.3143    7.3601 H   0  0  0  0  0  0  0  0  0  0  0  0
  1  2  2  0
  2  3  1  0
  2  4  1  0
  4  5  2  0
  5  6  1  0
  6  7  2  0
  7  8  1  0
  8  9  1  0
  9 10  1  0
 10 11  2  0
 11 12  1  0
 12 13  2  0
 13 14  1  0
 14 15  1  0
 15 16  1  0
 16 17  1  0
 17 18  1  0
 18 19  2  0
 18 20  2  0
 18 21  1  0
 21 22  2  0
 22 23  1  0
 23 24  2  0
 24 25  1  0
 25 26  2  0
 26 27  1  0
 27 28  1  0
 28 29  2  0
 14 30  2  0
  8 31  2  0
 31  4  1  0
 30 10  1  0
 29 21  1  0
 28 24  1  0
  3 32  1  0
  5 33  1  0
  6 34  1  0
  7 35  1  0
  9 36  1  0
 12 37  1  0
 13 38  1  0
 15 39  1  0
 16 40  1  0
 16 41  1  0
 17 42  1  0
 22 43  1  0
 23 44  1  0
 26 45  1  0
 29 46  1  0
 31 47  1  0
M  END
>  <Energy>  (70) 
322.30277636607866

>  <compound_id>  (70) 
3140

>  <target_id>  (70) 
1

>  <reference_id>  (70) 
181

>  <inspiration_ids>  (70) 
[99, 181]

>  <energy_score>  (70) 
422.99339458136285

>  <distance_score>  (70) 
3.047916625973145

>  <path>  (70) 
/opt/xchem-fragalysis-2/maxwin/BulkDock/SCRATCH/505734/C3140-P181/C3140-P181.minimised.mol

>  <scratch_subdir>  (70) 
/opt/xchem-fragalysis-2/maxwin/BulkDock/SCRATCH/505734/C3140-P181

>  <fragmenstein_runtime>  (70) 
11.678224086761475

>  <fragmenstein_outcome>  (70) 
too moved

>  <fragmenstein_mode>  (70) 
expansion

>  <fragmenstein_error>  (70) 


$$$$
C3142-P100
     RDKit          3D

 46 49  0  0  0  0  0  0  0  0999 V2000
  -16.3492    1.2372   14.8611 O   0  0  0  0  0  0  0  0  0  0  0  0
  -16.2208    0.4981   13.8970 C   0  0  0  0  0  0  0  0  0  0  0  0
  -16.9564   -0.6274   13.7782 O   0  0  0  0  0  0  0  0  0  0  0  0
  -15.2107    0.7199   12.8319 C   0  0  0  0  0  0  0  0  0  0  0  0
  -15.3527    0.1778   11.5532 C   0  0  0  0  0  0  0  0  0  0  0  0
  -14.3765    0.4285   10.5963 C   0  0  0  0  0  0  0  0  0  0  0  0
  -13.2803    1.2422   10.9025 C   0  0  0  0  0  0  0  0  0  0  0  0
  -13.1333    1.8404   12.1576 C   0  0  0  0  0  0  0  0  0  0  0  0
  -12.0550    2.6747   12.5047 N   0  0  0  0  0  0  0  0  0  0  0  0
  -11.0486    3.2565   11.7197 C   0  0  0  0  0  0  0  0  0  0  0  0
  -10.4771    4.3516   12.2243 N   0  0  0  0  0  0  0  0  0  0  0  0
   -9.5833    4.9845   11.4396 C   0  0  0  0  0  0  0  0  0  0  0  0
   -9.2023    4.5534   10.1930 C   0  0  0  0  0  0  0  0  0  0  0  0
   -9.7603    3.3744    9.7793 C   0  0  0  0  0  0  0  0  0  0  0  0
   -9.5171    2.7995    8.5341 N   0  0  0  0  0  0  0  0  0  0  0  0
   -8.1768    2.6348    7.9272 C   0  0  0  0  0  0  0  0  0  0  0  0
   -7.4936    1.2056    8.0259 C   0  0  0  0  0  0  0  0  0  0  0  0
   -7.1282    0.5208    6.7180 C   0  0  0  0  0  0  0  0  0  0  0  0
   -7.8778   -0.4685    6.2152 C   0  0  0  0  0  0  0  0  0  0  0  0
   -9.1166   -0.7415    6.9278 C   0  0  0  0  0  0  0  0  0  0  0  0
  -10.2242   -1.2976    6.2808 C   0  0  0  0  0  0  0  0  0  0  0  0
  -11.4320   -1.3896    6.9647 C   0  0  0  0  0  0  0  0  0  0  0  0
  -12.5243   -1.8466    6.3389 F   0  0  0  0  0  0  0  0  0  0  0  0
  -11.5367   -0.9903    8.2878 C   0  0  0  0  0  0  0  0  0  0  0  0
  -10.4112   -0.5171    8.9487 C   0  0  0  0  0  0  0  0  0  0  0  0
  -10.5171   -0.1726   10.2369 F   0  0  0  0  0  0  0  0  0  0  0  0
   -9.2189   -0.3396    8.2645 C   0  0  0  0  0  0  0  0  0  0  0  0
   -8.1978    0.3148    8.9035 O   0  0  0  0  0  0  0  0  0  0  0  0
  -10.6947    2.7550   10.5271 N   0  0  0  0  0  0  0  0  0  0  0  0
  -14.1025    1.5365   13.1273 C   0  0  0  0  0  0  0  0  0  0  0  0
  -16.6827   -1.2900   13.1117 H   0  0  0  0  0  0  0  0  0  0  0  0
  -16.2177   -0.4116   11.2672 H   0  0  0  0  0  0  0  0  0  0  0  0
  -14.4747    0.0128    9.5963 H   0  0  0  0  0  0  0  0  0  0  0  0
  -12.5543    1.4216   10.1159 H   0  0  0  0  0  0  0  0  0  0  0  0
  -12.2066    3.2616   13.3264 H   0  0  0  0  0  0  0  0  0  0  0  0
   -9.1653    5.8931   11.8639 H   0  0  0  0  0  0  0  0  0  0  0  0
   -8.4980    5.1082    9.5931 H   0  0  0  0  0  0  0  0  0  0  0  0
  -10.0564    1.9393    8.5376 H   0  0  0  0  0  0  0  0  0  0  0  0
   -7.4798    3.3906    8.3058 H   0  0  0  0  0  0  0  0  0  0  0  0
   -8.2859    2.8798    6.8631 H   0  0  0  0  0  0  0  0  0  0  0  0
   -6.5259    1.3603    8.5028 H   0  0  0  0  0  0  0  0  0  0  0  0
   -6.2287    0.8382    6.2034 H   0  0  0  0  0  0  0  0  0  0  0  0
   -7.6466   -0.9788    5.2876 H   0  0  0  0  0  0  0  0  0  0  0  0
  -10.1807   -1.6164    5.2438 H   0  0  0  0  0  0  0  0  0  0  0  0
  -12.4735   -1.0991    8.8152 H   0  0  0  0  0  0  0  0  0  0  0  0
  -14.0042    1.9623   14.1247 H   0  0  0  0  0  0  0  0  0  0  0  0
  1  2  2  0
  2  3  1  0
  2  4  1  0
  4  5  2  0
  5  6  1  0
  6  7  2  0
  7  8  1  0
  8  9  1  0
  9 10  1  0
 10 11  2  0
 11 12  1  0
 12 13  2  0
 13 14  1  0
 14 15  1  0
 15 16  1  0
 16 17  1  0
 17 18  1  0
 18 19  2  0
 19 20  1  0
 20 21  2  0
 21 22  1  0
 22 23  1  0
 22 24  2  0
 24 25  1  0
 25 26  1  0
 25 27  2  0
 27 28  1  0
 14 29  2  0
  8 30  2  0
 30  4  1  0
 29 10  1  0
 28 17  1  0
 27 20  1  0
  3 31  1  0
  5 32  1  0
  6 33  1  0
  7 34  1  0
  9 35  1  0
 12 36  1  0
 13 37  1  0
 15 38  1  0
 16 39  1  0
 16 40  1  0
 17 41  1  0
 18 42  1  0
 19 43  1  0
 21 44  1  0
 24 45  1  0
 30 46  1  0
M  END
>  <Energy>  (71) 
-15.046587855128609

>  <compound_id>  (71) 
3142

>  <target_id>  (71) 
1

>  <reference_id>  (71) 
100

>  <inspiration_ids>  (71) 
[100, 17]

>  <energy_score>  (71) 
-13.59081865722726

>  <distance_score>  (71) 
1.6773639610160376

>  <path>  (71) 
/opt/xchem-fragalysis-2/maxwin/BulkDock/SCRATCH/505734/C3142-P100/C3142-P100.minimised.mol

>  <scratch_subdir>  (71) 
/opt/xchem-fragalysis-2/maxwin/BulkDock/SCRATCH/505734/C3142-P100

>  <fragmenstein_runtime>  (71) 
3.3329617977142334

>  <fragmenstein_outcome>  (71) 
too moved

>  <fragmenstein_mode>  (71) 
expansion

>  <fragmenstein_error>  (71) 


$$$$
C3142-P17
     RDKit          3D

 46 49  0  0  0  0  0  0  0  0999 V2000
  -16.6051    0.9922   14.9097 O   0  0  0  0  0  0  0  0  0  0  0  0
  -16.4749    0.2690   13.9322 C   0  0  0  0  0  0  0  0  0  0  0  0
  -17.2245   -0.8410   13.7685 O   0  0  0  0  0  0  0  0  0  0  0  0
  -15.4298    0.4957   12.9012 C   0  0  0  0  0  0  0  0  0  0  0  0
  -15.5140   -0.0661   11.6232 C   0  0  0  0  0  0  0  0  0  0  0  0
  -14.4833    0.1399   10.7150 C   0  0  0  0  0  0  0  0  0  0  0  0
  -13.3936    0.9375   11.0671 C   0  0  0  0  0  0  0  0  0  0  0  0
  -13.3088    1.5690   12.3195 C   0  0  0  0  0  0  0  0  0  0  0  0
  -12.2188    2.3895   12.7024 N   0  0  0  0  0  0  0  0  0  0  0  0
  -11.1773    2.7857   11.8521 C   0  0  0  0  0  0  0  0  0  0  0  0
  -10.9007    4.0889   11.7763 N   0  0  0  0  0  0  0  0  0  0  0  0
  -10.0658    4.4642   10.7900 C   0  0  0  0  0  0  0  0  0  0  0  0
   -9.4939    3.5889    9.8999 C   0  0  0  0  0  0  0  0  0  0  0  0
   -9.7545    2.2559   10.1142 C   0  0  0  0  0  0  0  0  0  0  0  0
   -9.2994    1.2356    9.2634 N   0  0  0  0  0  0  0  0  0  0  0  0
   -7.8379    1.1096    9.0907 C   0  0  0  0  0  0  0  0  0  0  0  0
   -7.3146    0.2554    7.8995 C   0  0  0  0  0  0  0  0  0  0  0  0
   -7.4323   -1.2398    8.0372 C   0  0  0  0  0  0  0  0  0  0  0  0
   -8.4853   -1.8971    7.5376 C   0  0  0  0  0  0  0  0  0  0  0  0
   -9.5102   -1.0608    6.9220 C   0  0  0  0  0  0  0  0  0  0  0  0
  -10.8251   -1.4998    6.7531 C   0  0  0  0  0  0  0  0  0  0  0  0
  -11.7837   -0.6187    6.2543 C   0  0  0  0  0  0  0  0  0  0  0  0
  -13.0588   -1.0187    6.1450 F   0  0  0  0  0  0  0  0  0  0  0  0
  -11.4518    0.6816    5.8925 C   0  0  0  0  0  0  0  0  0  0  0  0
  -10.1372    1.1063    6.0350 C   0  0  0  0  0  0  0  0  0  0  0  0
   -9.8182    2.3613    5.6833 F   0  0  0  0  0  0  0  0  0  0  0  0
   -9.1696    0.2474    6.5374 C   0  0  0  0  0  0  0  0  0  0  0  0
   -7.8914    0.7305    6.6787 O   0  0  0  0  0  0  0  0  0  0  0  0
  -10.5715    1.8596   11.0956 N   0  0  0  0  0  0  0  0  0  0  0  0
  -14.3314    1.3106   13.2409 C   0  0  0  0  0  0  0  0  0  0  0  0
  -16.9526   -1.4948   13.0913 H   0  0  0  0  0  0  0  0  0  0  0  0
  -16.3691   -0.6528   11.3038 H   0  0  0  0  0  0  0  0  0  0  0  0
  -14.5225   -0.3077    9.7234 H   0  0  0  0  0  0  0  0  0  0  0  0
  -12.6274    1.0761   10.3091 H   0  0  0  0  0  0  0  0  0  0  0  0
  -12.4984    3.2034   13.2523 H   0  0  0  0  0  0  0  0  0  0  0  0
   -9.8821    5.5319   10.7195 H   0  0  0  0  0  0  0  0  0  0  0  0
   -8.8762    3.9335    9.0837 H   0  0  0  0  0  0  0  0  0  0  0  0
   -9.6892    0.3723    9.6453 H   0  0  0  0  0  0  0  0  0  0  0  0
   -7.4263    2.1062    8.9098 H   0  0  0  0  0  0  0  0  0  0  0  0
   -7.4392    0.6659   10.0044 H   0  0  0  0  0  0  0  0  0  0  0  0
   -6.2399    0.4621    7.8084 H   0  0  0  0  0  0  0  0  0  0  0  0
   -6.6371   -1.7598    8.5507 H   0  0  0  0  0  0  0  0  0  0  0  0
   -8.6285   -2.9667    7.6325 H   0  0  0  0  0  0  0  0  0  0  0  0
  -11.1266   -2.5043    7.0332 H   0  0  0  0  0  0  0  0  0  0  0  0
  -12.2073    1.3564    5.5106 H   0  0  0  0  0  0  0  0  0  0  0  0
  -14.2727    1.7528   14.2338 H   0  0  0  0  0  0  0  0  0  0  0  0
  1  2  2  0
  2  3  1  0
  2  4  1  0
  4  5  2  0
  5  6  1  0
  6  7  2  0
  7  8  1  0
  8  9  1  0
  9 10  1  0
 10 11  2  0
 11 12  1  0
 12 13  2  0
 13 14  1  0
 14 15  1  0
 15 16  1  0
 16 17  1  0
 17 18  1  0
 18 19  2  0
 19 20  1  0
 20 21  2  0
 21 22  1  0
 22 23  1  0
 22 24  2  0
 24 25  1  0
 25 26  1  0
 25 27  2  0
 27 28  1  0
 14 29  2  0
  8 30  2  0
 30  4  1  0
 29 10  1  0
 28 17  1  0
 27 20  1  0
  3 31  1  0
  5 32  1  0
  6 33  1  0
  7 34  1  0
  9 35  1  0
 12 36  1  0
 13 37  1  0
 15 38  1  0
 16 39  1  0
 16 40  1  0
 17 41  1  0
 18 42  1  0
 19 43  1  0
 21 44  1  0
 24 45  1  0
 30 46  1  0
M  END
>  <Energy>  (72) 
-21.366363444445454

>  <compound_id>  (72) 
3142

>  <target_id>  (72) 
1

>  <reference_id>  (72) 
17

>  <inspiration_ids>  (72) 
[100, 17]

>  <energy_score>  (72) 
-19.910594246544917

>  <distance_score>  (72) 
1.588511842450988

>  <path>  (72) 
/opt/xchem-fragalysis-2/maxwin/BulkDock/SCRATCH/505734/C3142-P17/C3142-P17.minimised.mol

>  <scratch_subdir>  (72) 
/opt/xchem-fragalysis-2/maxwin/BulkDock/SCRATCH/505734/C3142-P17

>  <fragmenstein_runtime>  (72) 
3.6050326824188232

>  <fragmenstein_outcome>  (72) 
too moved

>  <fragmenstein_mode>  (72) 
expansion

>  <fragmenstein_error>  (72) 


$$$$
C3143-P100
     RDKit          3D

 59 63  0  0  0  0  0  0  0  0999 V2000
  -14.7589    0.6530   15.1694 O   0  0  0  0  0  0  0  0  0  0  0  0
  -13.8952    0.6934   14.3117 C   0  0  0  0  0  0  0  0  0  0  0  0
  -12.6306    0.2714   14.4544 O   0  0  0  0  0  0  0  0  0  0  0  0
  -14.0912    1.1520   12.9536 C   0  0  0  0  0  0  0  0  0  0  0  0
  -13.2759    2.1851   12.5458 C   0  0  0  0  0  0  0  0  0  0  0  0
  -13.6044    2.9107   11.4216 C   0  0  0  0  0  0  0  0  0  0  0  0
  -12.9419    4.1423   11.2030 N   0  0  0  0  0  0  0  0  0  0  0  0
  -11.5488    4.2960   11.2950 C   0  0  0  0  0  0  0  0  0  0  0  0
  -10.7986    3.9398   10.2461 N   0  0  0  0  0  0  0  0  0  0  0  0
   -9.5306    4.3792   10.2445 C   0  0  0  0  0  0  0  0  0  0  0  0
   -8.9795    5.1220   11.2614 C   0  0  0  0  0  0  0  0  0  0  0  0
   -9.7994    5.3568   12.3313 C   0  0  0  0  0  0  0  0  0  0  0  0
  -11.0845    4.9678   12.3648 N   0  0  0  0  0  0  0  0  0  0  0  0
  -14.7578    2.5757   10.6734 C   0  0  0  0  0  0  0  0  0  0  0  0
  -15.5700    1.4685   11.0344 C   0  0  0  0  0  0  0  0  0  0  0  0
  -16.8551    0.9307   10.6171 C   0  0  0  0  0  0  0  0  0  0  0  0
  -17.8758    1.4841    9.6262 C   0  0  0  0  0  0  0  0  0  0  0  0
  -19.2026    1.5087   10.2622 N   0  0  0  0  0  0  0  0  0  0  0  0
  -20.0169    2.7131   10.0760 C   0  0  0  0  0  0  0  0  0  0  0  0
  -21.3254    2.7373   10.9540 C   0  0  0  0  0  0  0  0  0  0  0  0
  -21.5000    1.5557   11.8531 N   0  0  0  0  0  0  0  0  0  0  0  0
  -20.8174    1.6831   13.0881 C   0  0  0  0  0  0  0  0  0  0  0  0
  -19.5408    1.1475   13.2879 C   0  0  0  0  0  0  0  0  0  0  0  0
  -18.7805    1.3658   14.4311 C   0  0  0  0  0  0  0  0  0  0  0  0
  -19.3256    2.0798   15.4764 C   0  0  0  0  0  0  0  0  0  0  0  0
  -20.6225    2.5989   15.3655 C   0  0  0  0  0  0  0  0  0  0  0  0
  -21.1402    3.4190   16.5158 C   0  0  0  0  0  0  0  0  0  0  0  0
  -21.8190    2.6833   17.4365 F   0  0  0  0  0  0  0  0  0  0  0  0
  -21.9818    4.4178   16.1314 F   0  0  0  0  0  0  0  0  0  0  0  0
  -20.1270    4.0375   17.2040 F   0  0  0  0  0  0  0  0  0  0  0  0
  -21.3653    2.3927   14.1708 C   0  0  0  0  0  0  0  0  0  0  0  0
  -21.2520    0.2834   11.1033 C   0  0  0  0  0  0  0  0  0  0  0  0
  -20.0714    0.3421   10.0701 C   0  0  0  0  0  0  0  0  0  0  0  0
  -17.0182   -0.2201   11.3682 C   0  0  0  0  0  0  0  0  0  0  0  0
  -16.0513   -0.2890   12.3232 N   0  0  0  0  0  0  0  0  0  0  0  0
  -15.1760    0.7498   12.1686 C   0  0  0  0  0  0  0  0  0  0  0  0
  -12.5907   -0.2168   15.2967 H   0  0  0  0  0  0  0  0  0  0  0  0
  -12.4507    2.5022   13.1799 H   0  0  0  0  0  0  0  0  0  0  0  0
  -13.2400    4.7543   11.9669 H   0  0  0  0  0  0  0  0  0  0  0  0
   -8.9504    4.1117    9.3664 H   0  0  0  0  0  0  0  0  0  0  0  0
   -7.9577    5.4729   11.2338 H   0  0  0  0  0  0  0  0  0  0  0  0
   -9.4497    5.9031   13.2023 H   0  0  0  0  0  0  0  0  0  0  0  0
  -15.0496    3.2091    9.8397 H   0  0  0  0  0  0  0  0  0  0  0  0
  -17.5636    2.4992    9.3534 H   0  0  0  0  0  0  0  0  0  0  0  0
  -17.8788    0.8860    8.7079 H   0  0  0  0  0  0  0  0  0  0  0  0
  -20.3101    2.8065    9.0213 H   0  0  0  0  0  0  0  0  0  0  0  0
  -19.4318    3.6119   10.2826 H   0  0  0  0  0  0  0  0  0  0  0  0
  -22.1817    2.7356   10.2665 H   0  0  0  0  0  0  0  0  0  0  0  0
  -21.4082    3.6721   11.5152 H   0  0  0  0  0  0  0  0  0  0  0  0
  -19.0789    0.5587   12.5166 H   0  0  0  0  0  0  0  0  0  0  0  0
  -17.7714    0.9694   14.4928 H   0  0  0  0  0  0  0  0  0  0  0  0
  -18.7434    2.2309   16.3832 H   0  0  0  0  0  0  0  0  0  0  0  0
  -22.3609    2.8209   14.0714 H   0  0  0  0  0  0  0  0  0  0  0  0
  -22.1708    0.0495   10.5506 H   0  0  0  0  0  0  0  0  0  0  0  0
  -21.1052   -0.5521   11.8001 H   0  0  0  0  0  0  0  0  0  0  0  0
  -20.4911    0.3572    9.0548 H   0  0  0  0  0  0  0  0  0  0  0  0
  -19.5222   -0.6016   10.1352 H   0  0  0  0  0  0  0  0  0  0  0  0
  -17.8181   -0.9391   11.3893 H   0  0  0  0  0  0  0  0  0  0  0  0
  -16.0111   -0.9939   13.0473 H   0  0  0  0  0  0  0  0  0  0  0  0
  1  2  2  0
  2  3  1  0
  2  4  1  0
  4  5  2  0
  5  6  1  0
  6  7  1  0
  7  8  1  0
  8  9  2  0
  9 10  1  0
 10 11  2  0
 11 12  1  0
 12 13  2  0
  6 14  2  0
 14 15  1  0
 15 16  1  0
 16 17  1  0
 17 18  1  0
 18 19  1  0
 19 20  1  0
 20 21  1  0
 21 22  1  0
 22 23  2  0
 23 24  1  0
 24 25  2  0
 25 26  1  0
 26 27  1  0
 27 28  1  0
 27 29  1  0
 27 30  1  0
 26 31  2  0
 21 32  1  0
 32 33  1  0
 16 34  2  0
 34 35  1  0
 35 36  1  0
 36  4  1  0
 13  8  1  0
 36 15  2  0
 33 18  1  0
 31 22  1  0
  3 37  1  0
  5 38  1  0
  7 39  1  0
 10 40  1  0
 11 41  1  0
 12 42  1  0
 14 43  1  0
 17 44  1  0
 17 45  1  0
 19 46  1  0
 19 47  1  0
 20 48  1  0
 20 49  1  0
 23 50  1  0
 24 51  1  0
 25 52  1  0
 31 53  1  0
 32 54  1  0
 32 55  1  0
 33 56  1  0
 33 57  1  0
 34 58  1  0
 35 59  1  0
M  END
>  <Energy>  (73) 
104.64079388163262

>  <compound_id>  (73) 
3143

>  <target_id>  (73) 
1

>  <reference_id>  (73) 
100

>  <inspiration_ids>  (73) 
[100, 18]

>  <energy_score>  (73) 
-43.94366507609698

>  <distance_score>  (73) 
1.7011465977664029

>  <path>  (73) 
/opt/xchem-fragalysis-2/maxwin/BulkDock/SCRATCH/505734/C3143-P100/C3143-P100.minimised.mol

>  <scratch_subdir>  (73) 
/opt/xchem-fragalysis-2/maxwin/BulkDock/SCRATCH/505734/C3143-P100

>  <fragmenstein_runtime>  (73) 
3.411515474319458

>  <fragmenstein_outcome>  (73) 
too moved

>  <fragmenstein_mode>  (73) 
expansion

>  <fragmenstein_error>  (73) 


$$$$
C3143-P18
     RDKit          3D

 59 63  0  0  0  0  0  0  0  0999 V2000
  -16.2971    1.0218   15.1851 O   0  0  0  0  0  0  0  0  0  0  0  0
  -16.2134    0.3594   14.1635 C   0  0  0  0  0  0  0  0  0  0  0  0
  -16.9595   -0.7396   13.9693 O   0  0  0  0  0  0  0  0  0  0  0  0
  -15.3135    0.6864   13.0586 C   0  0  0  0  0  0  0  0  0  0  0  0
  -14.1969    1.4836   13.3015 C   0  0  0  0  0  0  0  0  0  0  0  0
  -13.5200    2.1426   12.2716 C   0  0  0  0  0  0  0  0  0  0  0  0
  -12.3706    2.8489   12.6411 N   0  0  0  0  0  0  0  0  0  0  0  0
  -11.3730    3.5485   11.9789 C   0  0  0  0  0  0  0  0  0  0  0  0
  -11.2849    3.5614   10.6417 N   0  0  0  0  0  0  0  0  0  0  0  0
  -10.2836    4.2848   10.1067 C   0  0  0  0  0  0  0  0  0  0  0  0
   -9.3783    5.0015   10.8485 C   0  0  0  0  0  0  0  0  0  0  0  0
   -9.5308    4.9093   12.2075 C   0  0  0  0  0  0  0  0  0  0  0  0
  -10.5025    4.1864   12.7921 N   0  0  0  0  0  0  0  0  0  0  0  0
  -14.0493    2.0545   10.9692 C   0  0  0  0  0  0  0  0  0  0  0  0
  -15.1839    1.2345   10.7058 C   0  0  0  0  0  0  0  0  0  0  0  0
  -16.2121    1.1382    9.6948 C   0  0  0  0  0  0  0  0  0  0  0  0
  -16.5844    2.1284    8.6382 C   0  0  0  0  0  0  0  0  0  0  0  0
  -17.7984    2.9105    8.9581 N   0  0  0  0  0  0  0  0  0  0  0  0
  -17.7420    3.7585   10.1496 C   0  0  0  0  0  0  0  0  0  0  0  0
  -18.2853    3.1471   11.4622 C   0  0  0  0  0  0  0  0  0  0  0  0
  -19.6523    2.5459   11.3536 N   0  0  0  0  0  0  0  0  0  0  0  0
  -19.9933    1.9533   12.6095 C   0  0  0  0  0  0  0  0  0  0  0  0
  -20.0492    0.5763   12.8182 C   0  0  0  0  0  0  0  0  0  0  0  0
  -20.1961    0.0397   14.1001 C   0  0  0  0  0  0  0  0  0  0  0  0
  -20.3168    0.8628   15.2137 C   0  0  0  0  0  0  0  0  0  0  0  0
  -20.3358    2.2424   15.0575 C   0  0  0  0  0  0  0  0  0  0  0  0
  -20.4536    3.1461   16.2618 C   0  0  0  0  0  0  0  0  0  0  0  0
  -21.0779    2.5621   17.3223 F   0  0  0  0  0  0  0  0  0  0  0  0
  -21.1566    4.2842   16.0062 F   0  0  0  0  0  0  0  0  0  0  0  0
  -19.2340    3.5574   16.7249 F   0  0  0  0  0  0  0  0  0  0  0  0
  -20.1932    2.7562   13.7531 C   0  0  0  0  0  0  0  0  0  0  0  0
  -19.7466    1.6691   10.1518 C   0  0  0  0  0  0  0  0  0  0  0  0
  -19.1172    2.2713    8.8594 C   0  0  0  0  0  0  0  0  0  0  0  0
  -16.8772   -0.0523    9.9327 C   0  0  0  0  0  0  0  0  0  0  0  0
  -16.5879   -0.4250   11.2113 N   0  0  0  0  0  0  0  0  0  0  0  0
  -15.6698    0.4416   11.7411 C   0  0  0  0  0  0  0  0  0  0  0  0
  -17.4927   -0.8305   14.7896 H   0  0  0  0  0  0  0  0  0  0  0  0
  -13.8659    1.6224   14.3283 H   0  0  0  0  0  0  0  0  0  0  0  0
  -12.2983    3.0855   13.6339 H   0  0  0  0  0  0  0  0  0  0  0  0
  -10.2341    4.2718    9.0222 H   0  0  0  0  0  0  0  0  0  0  0  0
   -8.5831    5.5753   10.3951 H   0  0  0  0  0  0  0  0  0  0  0  0
   -8.8518    5.4180   12.8863 H   0  0  0  0  0  0  0  0  0  0  0  0
  -13.6317    2.6577   10.1685 H   0  0  0  0  0  0  0  0  0  0  0  0
  -15.7525    2.8246    8.4761 H   0  0  0  0  0  0  0  0  0  0  0  0
  -16.7269    1.6126    7.6806 H   0  0  0  0  0  0  0  0  0  0  0  0
  -18.3454    4.6504    9.9322 H   0  0  0  0  0  0  0  0  0  0  0  0
  -16.7252    4.1361   10.3138 H   0  0  0  0  0  0  0  0  0  0  0  0
  -18.3172    3.9647   12.1736 H   0  0  0  0  0  0  0  0  0  0  0  0
  -17.5826    2.4084   11.8510 H   0  0  0  0  0  0  0  0  0  0  0  0
  -19.9363   -0.1347   12.0090 H   0  0  0  0  0  0  0  0  0  0  0  0
  -20.2145   -1.0404   14.2282 H   0  0  0  0  0  0  0  0  0  0  0  0
  -20.4227    0.4152   16.2021 H   0  0  0  0  0  0  0  0  0  0  0  0
  -20.2194    3.8258   13.6301 H   0  0  0  0  0  0  0  0  0  0  0  0
  -20.8052    1.4588    9.9558 H   0  0  0  0  0  0  0  0  0  0  0  0
  -19.2560    0.7145   10.3258 H   0  0  0  0  0  0  0  0  0  0  0  0
  -19.1165    1.5107    8.0690 H   0  0  0  0  0  0  0  0  0  0  0  0
  -19.8102    3.0470    8.5059 H   0  0  0  0  0  0  0  0  0  0  0  0
  -17.6411   -0.5644    9.3659 H   0  0  0  0  0  0  0  0  0  0  0  0
  -17.0329   -1.1631   11.7471 H   0  0  0  0  0  0  0  0  0  0  0  0
  1  2  2  0
  2  3  1  0
  2  4  1  0
  4  5  2  0
  5  6  1  0
  6  7  1  0
  7  8  1  0
  8  9  2  0
  9 10  1  0
 10 11  2  0
 11 12  1  0
 12 13  2  0
  6 14  2  0
 14 15  1  0
 15 16  1  0
 16 17  1  0
 17 18  1  0
 18 19  1  0
 19 20  1  0
 20 21  1  0
 21 22  1  0
 22 23  2  0
 23 24  1  0
 24 25  2  0
 25 26  1  0
 26 27  1  0
 27 28  1  0
 27 29  1  0
 27 30  1  0
 26 31  2  0
 21 32  1  0
 32 33  1  0
 16 34  2  0
 34 35  1  0
 35 36  1  0
 36  4  1  0
 13  8  1  0
 36 15  2  0
 33 18  1  0
 31 22  1  0
  3 37  1  0
  5 38  1  0
  7 39  1  0
 10 40  1  0
 11 41  1  0
 12 42  1  0
 14 43  1  0
 17 44  1  0
 17 45  1  0
 19 46  1  0
 19 47  1  0
 20 48  1  0
 20 49  1  0
 23 50  1  0
 24 51  1  0
 25 52  1  0
 31 53  1  0
 32 54  1  0
 32 55  1  0
 33 56  1  0
 33 57  1  0
 34 58  1  0
 35 59  1  0
M  END
>  <Energy>  (74) 
87.253147581669737

>  <compound_id>  (74) 
3143

>  <target_id>  (74) 
1

>  <reference_id>  (74) 
18

>  <inspiration_ids>  (74) 
[100, 18]

>  <energy_score>  (74) 
-61.33131137606193

>  <distance_score>  (74) 
1.438182798399887

>  <path>  (74) 
/opt/xchem-fragalysis-2/maxwin/BulkDock/SCRATCH/505734/C3143-P18/C3143-P18.minimised.mol

>  <scratch_subdir>  (74) 
/opt/xchem-fragalysis-2/maxwin/BulkDock/SCRATCH/505734/C3143-P18

>  <fragmenstein_runtime>  (74) 
4.142421722412109

>  <fragmenstein_outcome>  (74) 
too moved

>  <fragmenstein_mode>  (74) 
expansion

>  <fragmenstein_error>  (74) 


$$$$
C3144-P100
     RDKit          3D

 61 65  0  0  0  0  0  0  0  0999 V2000
   -9.2202    1.9225    4.3293 O   0  0  0  0  0  0  0  0  0  0  0  0
   -8.0902    1.6128    4.3890 C   0  0  0  0  0  0  0  0  0  0  0  0
   -7.5958    0.2517    3.9284 C   0  0  0  0  0  0  0  0  0  0  0  0
   -7.6557   -0.7714    5.0398 C   0  0  0  0  0  0  0  0  0  0  0  0
   -8.4051   -1.9456    4.8691 C   0  0  0  0  0  0  0  0  0  0  0  0
   -8.5536   -2.8971    5.8931 C   0  0  0  0  0  0  0  0  0  0  0  0
   -7.9678   -2.6901    7.1320 C   0  0  0  0  0  0  0  0  0  0  0  0
   -7.2111   -1.5524    7.2818 C   0  0  0  0  0  0  0  0  0  0  0  0
   -7.0386   -0.6328    6.2662 C   0  0  0  0  0  0  0  0  0  0  0  0
   -6.1787    0.3580    6.6315 O   0  0  0  0  0  0  0  0  0  0  0  0
   -6.0362    0.0752    8.0328 C   0  0  0  0  0  0  0  0  0  0  0  0
   -6.5444   -1.2055    8.4116 O   0  0  0  0  0  0  0  0  0  0  0  0
   -6.8597    2.3703    5.0025 N   0  0  0  0  0  0  0  0  0  0  0  0
   -6.7997    3.5357    5.7008 C   0  0  0  0  0  0  0  0  0  0  0  0
   -5.6647    4.0354    6.2147 C   0  0  0  0  0  0  0  0  0  0  0  0
   -5.7078    5.0138    7.1832 N   0  0  0  0  0  0  0  0  0  0  0  0
   -6.8807    5.4986    7.7257 C   0  0  0  0  0  0  0  0  0  0  0  0
   -6.8866    6.2903    8.6620 O   0  0  0  0  0  0  0  0  0  0  0  0
   -8.1495    5.0048    7.0939 C   0  0  0  0  0  0  0  0  0  0  0  0
   -9.5305    5.4865    7.5136 C   0  0  0  0  0  0  0  0  0  0  0  0
  -10.4569    4.4434    8.2261 C   0  0  0  0  0  0  0  0  0  0  0  0
  -11.5914    4.0253    7.4122 O   0  0  0  0  0  0  0  0  0  0  0  0
  -12.5960    3.1468    7.7380 C   0  0  0  0  0  0  0  0  0  0  0  0
  -13.4231    2.8408    6.8783 O   0  0  0  0  0  0  0  0  0  0  0  0
  -12.7624    2.4981    9.0859 C   0  0  0  0  0  0  0  0  0  0  0  0
  -13.3016    1.2042    9.1943 C   0  0  0  0  0  0  0  0  0  0  0  0
  -13.4275    0.5757   10.4419 C   0  0  0  0  0  0  0  0  0  0  0  0
  -12.9602    1.2103   11.5973 C   0  0  0  0  0  0  0  0  0  0  0  0
  -12.4360    2.4973   11.5146 C   0  0  0  0  0  0  0  0  0  0  0  0
  -11.7261    3.0784   12.5765 N   0  0  0  0  0  0  0  0  0  0  0  0
  -10.6391    3.9526   12.4434 C   0  0  0  0  0  0  0  0  0  0  0  0
  -10.0159    4.0715   11.2610 N   0  0  0  0  0  0  0  0  0  0  0  0
   -9.0153    4.9627   11.1543 C   0  0  0  0  0  0  0  0  0  0  0  0
   -8.5729    5.7308   12.1848 C   0  0  0  0  0  0  0  0  0  0  0  0
   -9.2216    5.5080   13.3631 C   0  0  0  0  0  0  0  0  0  0  0  0
  -10.2353    4.6269   13.5218 N   0  0  0  0  0  0  0  0  0  0  0  0
  -12.4746    3.1524   10.2735 C   0  0  0  0  0  0  0  0  0  0  0  0
   -8.0426    4.1277    6.0889 C   0  0  0  0  0  0  0  0  0  0  0  0
   -8.2436   -0.0531    3.0960 H   0  0  0  0  0  0  0  0  0  0  0  0
   -6.6044    0.3426    3.4935 H   0  0  0  0  0  0  0  0  0  0  0  0
   -8.9137   -2.1322    3.9234 H   0  0  0  0  0  0  0  0  0  0  0  0
   -9.1552   -3.7879    5.7186 H   0  0  0  0  0  0  0  0  0  0  0  0
   -8.1095   -3.3930    7.9437 H   0  0  0  0  0  0  0  0  0  0  0  0
   -6.5792    0.8456    8.5882 H   0  0  0  0  0  0  0  0  0  0  0  0
   -4.9732    0.1162    8.2890 H   0  0  0  0  0  0  0  0  0  0  0  0
   -6.0125    1.8522    4.8096 H   0  0  0  0  0  0  0  0  0  0  0  0
   -4.6820    3.6608    5.9579 H   0  0  0  0  0  0  0  0  0  0  0  0
   -4.8530    5.3725    7.5924 H   0  0  0  0  0  0  0  0  0  0  0  0
   -9.3963    6.3369    8.1938 H   0  0  0  0  0  0  0  0  0  0  0  0
  -10.0495    5.8889    6.6339 H   0  0  0  0  0  0  0  0  0  0  0  0
   -9.9074    3.5576    8.5562 H   0  0  0  0  0  0  0  0  0  0  0  0
  -10.8815    4.9924    9.0625 H   0  0  0  0  0  0  0  0  0  0  0  0
  -13.6090    0.6729    8.2948 H   0  0  0  0  0  0  0  0  0  0  0  0
  -13.8369   -0.4296   10.4951 H   0  0  0  0  0  0  0  0  0  0  0  0
  -12.9562    0.6763   12.5431 H   0  0  0  0  0  0  0  0  0  0  0  0
  -12.1583    3.1439   13.4952 H   0  0  0  0  0  0  0  0  0  0  0  0
   -8.5355    5.0263   10.1866 H   0  0  0  0  0  0  0  0  0  0  0  0
   -7.7582    6.4321   12.0828 H   0  0  0  0  0  0  0  0  0  0  0  0
   -8.9282    6.0488   14.2556 H   0  0  0  0  0  0  0  0  0  0  0  0
  -12.2206    4.2043   10.2465 H   0  0  0  0  0  0  0  0  0  0  0  0
   -8.9554    3.8074    5.5961 H   0  0  0  0  0  0  0  0  0  0  0  0
  1  2  2  0
  2  3  1  0
  3  4  1  0
  4  5  2  0
  5  6  1  0
  6  7  2  0
  7  8  1  0
  8  9  2  0
  9 10  1  0
 10 11  1  0
 11 12  1  0
  2 13  1  0
 13 14  1  0
 14 15  2  0
 15 16  1  0
 16 17  1  0
 17 18  2  0
 17 19  1  0
 19 20  1  0
 20 21  1  0
 21 22  1  0
 22 23  1  0
 23 24  2  0
 23 25  1  0
 25 26  2  0
 26 27  1  0
 27 28  2  0
 28 29  1  0
 29 30  1  0
 30 31  1  0
 31 32  2  0
 32 33  1  0
 33 34  2  0
 34 35  1  0
 35 36  2  0
 29 37  2  0
 19 38  2  0
  9  4  1  0
 38 14  1  0
 12  8  1  0
 37 25  1  0
 36 31  1  0
  3 39  1  0
  3 40  1  0
  5 41  1  0
  6 42  1  0
  7 43  1  0
 11 44  1  0
 11 45  1  0
 13 46  1  0
 15 47  1  0
 16 48  1  0
 20 49  1  0
 20 50  1  0
 21 51  1  0
 21 52  1  0
 26 53  1  0
 27 54  1  0
 28 55  1  0
 30 56  1  0
 33 57  1  0
 34 58  1  0
 35 59  1  0
 37 60  1  0
 38 61  1  0
M  END
>  <Energy>  (75) 
37.611184790423536

>  <compound_id>  (75) 
3144

>  <target_id>  (75) 
1

>  <reference_id>  (75) 
100

>  <inspiration_ids>  (75) 
[100, 33]

>  <energy_score>  (75) 
-62.37289814318967

>  <distance_score>  (75) 
3.715438921537501

>  <path>  (75) 
/opt/xchem-fragalysis-2/maxwin/BulkDock/SCRATCH/505734/C3144-P100/C3144-P100.minimised.mol

>  <scratch_subdir>  (75) 
/opt/xchem-fragalysis-2/maxwin/BulkDock/SCRATCH/505734/C3144-P100

>  <fragmenstein_runtime>  (75) 
6.898132085800171

>  <fragmenstein_outcome>  (75) 
too moved

>  <fragmenstein_mode>  (75) 
expansion

>  <fragmenstein_error>  (75) 


$$$$
C3144-P33
     RDKit          3D

 61 65  0  0  0  0  0  0  0  0999 V2000
   -6.4936    0.9185    5.0407 O   0  0  0  0  0  0  0  0  0  0  0  0
   -5.5765    0.8557    5.7669 C   0  0  0  0  0  0  0  0  0  0  0  0
   -4.8342   -0.4616    6.0349 C   0  0  0  0  0  0  0  0  0  0  0  0
   -5.8393   -1.5777    6.0170 C   0  0  0  0  0  0  0  0  0  0  0  0
   -6.7103   -1.7775    7.0997 C   0  0  0  0  0  0  0  0  0  0  0  0
   -7.8031   -2.6521    6.9842 C   0  0  0  0  0  0  0  0  0  0  0  0
   -8.0473   -3.3348    5.7918 C   0  0  0  0  0  0  0  0  0  0  0  0
   -7.1757   -3.1335    4.7434 C   0  0  0  0  0  0  0  0  0  0  0  0
   -6.0960   -2.2892    4.8547 C   0  0  0  0  0  0  0  0  0  0  0  0
   -5.3913   -2.2011    3.6911 O   0  0  0  0  0  0  0  0  0  0  0  0
   -6.1762   -3.0526    2.8330 C   0  0  0  0  0  0  0  0  0  0  0  0
   -7.2889   -3.6745    3.4986 O   0  0  0  0  0  0  0  0  0  0  0  0
   -4.9412    1.9449    6.6923 N   0  0  0  0  0  0  0  0  0  0  0  0
   -5.3405    3.2146    6.9611 C   0  0  0  0  0  0  0  0  0  0  0  0
   -4.5917    4.0985    7.6311 C   0  0  0  0  0  0  0  0  0  0  0  0
   -5.1494    5.2629    8.0915 N   0  0  0  0  0  0  0  0  0  0  0  0
   -6.4905    5.5566    8.0002 C   0  0  0  0  0  0  0  0  0  0  0  0
   -6.9650    6.5747    8.4941 O   0  0  0  0  0  0  0  0  0  0  0  0
   -7.3455    4.5647    7.2592 C   0  0  0  0  0  0  0  0  0  0  0  0
   -8.8586    4.7666    7.2597 C   0  0  0  0  0  0  0  0  0  0  0  0
   -9.8167    3.5767    6.9201 C   0  0  0  0  0  0  0  0  0  0  0  0
  -10.2614    2.8704    8.1069 O   0  0  0  0  0  0  0  0  0  0  0  0
  -11.2572    1.9400    7.9227 C   0  0  0  0  0  0  0  0  0  0  0  0
  -11.6604    1.5544    6.8357 O   0  0  0  0  0  0  0  0  0  0  0  0
  -11.8917    1.5110    9.2206 C   0  0  0  0  0  0  0  0  0  0  0  0
  -12.9695    0.6192    9.2753 C   0  0  0  0  0  0  0  0  0  0  0  0
  -13.6236    0.3761   10.4917 C   0  0  0  0  0  0  0  0  0  0  0  0
  -13.2462    1.0675   11.6530 C   0  0  0  0  0  0  0  0  0  0  0  0
  -12.1820    1.9650   11.6223 C   0  0  0  0  0  0  0  0  0  0  0  0
  -11.8924    2.8229   12.6976 N   0  0  0  0  0  0  0  0  0  0  0  0
  -11.0766    3.9608   12.6322 C   0  0  0  0  0  0  0  0  0  0  0  0
  -11.0129    4.6506   11.4747 N   0  0  0  0  0  0  0  0  0  0  0  0
  -10.0678    5.5917   11.3415 C   0  0  0  0  0  0  0  0  0  0  0  0
   -9.2077    5.9188   12.3482 C   0  0  0  0  0  0  0  0  0  0  0  0
   -9.3962    5.2286   13.5198 C   0  0  0  0  0  0  0  0  0  0  0  0
  -10.3196    4.2535   13.6975 N   0  0  0  0  0  0  0  0  0  0  0  0
  -11.4891    2.1026   10.4126 C   0  0  0  0  0  0  0  0  0  0  0  0
   -6.7184    3.5296    6.6826 C   0  0  0  0  0  0  0  0  0  0  0  0
   -4.3242   -0.4596    7.0037 H   0  0  0  0  0  0  0  0  0  0  0  0
   -4.0741   -0.6023    5.2611 H   0  0  0  0  0  0  0  0  0  0  0  0
   -6.5913   -1.2118    8.0215 H   0  0  0  0  0  0  0  0  0  0  0  0
   -8.4956   -2.7692    7.8171 H   0  0  0  0  0  0  0  0  0  0  0  0
   -8.9151   -3.9776    5.6879 H   0  0  0  0  0  0  0  0  0  0  0  0
   -6.5545   -2.4544    1.9960 H   0  0  0  0  0  0  0  0  0  0  0  0
   -5.5280   -3.8406    2.4342 H   0  0  0  0  0  0  0  0  0  0  0  0
   -4.2053    1.5284    7.2504 H   0  0  0  0  0  0  0  0  0  0  0  0
   -3.5519    3.9288    7.8942 H   0  0  0  0  0  0  0  0  0  0  0  0
   -4.5887    5.9211    8.6189 H   0  0  0  0  0  0  0  0  0  0  0  0
   -9.1534    5.1496    8.2436 H   0  0  0  0  0  0  0  0  0  0  0  0
   -9.0548    5.5623    6.5290 H   0  0  0  0  0  0  0  0  0  0  0  0
   -9.3795    2.8640    6.2168 H   0  0  0  0  0  0  0  0  0  0  0  0
  -10.7111    4.0058    6.4505 H   0  0  0  0  0  0  0  0  0  0  0  0
  -13.3082    0.1244    8.3674 H   0  0  0  0  0  0  0  0  0  0  0  0
  -14.4601   -0.3189   10.5194 H   0  0  0  0  0  0  0  0  0  0  0  0
  -13.8186    0.9290   12.5657 H   0  0  0  0  0  0  0  0  0  0  0  0
  -11.9620    2.4603   13.6345 H   0  0  0  0  0  0  0  0  0  0  0  0
  -10.0256    6.0874   10.3773 H   0  0  0  0  0  0  0  0  0  0  0  0
   -8.4434    6.6741   12.2359 H   0  0  0  0  0  0  0  0  0  0  0  0
   -8.7702    5.4384   14.3839 H   0  0  0  0  0  0  0  0  0  0  0  0
  -10.6080    2.7358   10.3725 H   0  0  0  0  0  0  0  0  0  0  0  0
   -7.2963    2.8103    6.1179 H   0  0  0  0  0  0  0  0  0  0  0  0
  1  2  2  0
  2  3  1  0
  3  4  1  0
  4  5  2  0
  5  6  1  0
  6  7  2  0
  7  8  1  0
  8  9  2  0
  9 10  1  0
 10 11  1  0
 11 12  1  0
  2 13  1  0
 13 14  1  0
 14 15  2  0
 15 16  1  0
 16 17  1  0
 17 18  2  0
 17 19  1  0
 19 20  1  0
 20 21  1  0
 21 22  1  0
 22 23  1  0
 23 24  2  0
 23 25  1  0
 25 26  2  0
 26 27  1  0
 27 28  2  0
 28 29  1  0
 29 30  1  0
 30 31  1  0
 31 32  2  0
 32 33  1  0
 33 34  2  0
 34 35  1  0
 35 36  2  0
 29 37  2  0
 19 38  2  0
  9  4  1  0
 38 14  1  0
 12  8  1  0
 37 25  1  0
 36 31  1  0
  3 39  1  0
  3 40  1  0
  5 41  1  0
  6 42  1  0
  7 43  1  0
 11 44  1  0
 11 45  1  0
 13 46  1  0
 15 47  1  0
 16 48  1  0
 20 49  1  0
 20 50  1  0
 21 51  1  0
 21 52  1  0
 26 53  1  0
 27 54  1  0
 28 55  1  0
 30 56  1  0
 33 57  1  0
 34 58  1  0
 35 59  1  0
 37 60  1  0
 38 61  1  0
M  END
>  <Energy>  (76) 
22.574301665771543

>  <compound_id>  (76) 
3144

>  <target_id>  (76) 
1

>  <reference_id>  (76) 
33

>  <inspiration_ids>  (76) 
[100, 33]

>  <energy_score>  (76) 
-77.40978126784364

>  <distance_score>  (76) 
3.4958310880747714

>  <path>  (76) 
/opt/xchem-fragalysis-2/maxwin/BulkDock/SCRATCH/505734/C3144-P33/C3144-P33.minimised.mol

>  <scratch_subdir>  (76) 
/opt/xchem-fragalysis-2/maxwin/BulkDock/SCRATCH/505734/C3144-P33

>  <fragmenstein_runtime>  (76) 
14.131828546524048

>  <fragmenstein_outcome>  (76) 
too moved

>  <fragmenstein_mode>  (76) 
expansion

>  <fragmenstein_error>  (76) 


$$$$
C3145-P100
     RDKit          3D

 56 59  0  0  0  0  0  0  0  0999 V2000
  -16.1850    0.9663   15.1465 O   0  0  0  0  0  0  0  0  0  0  0  0
  -16.4288    1.4011   14.0324 C   0  0  0  0  0  0  0  0  0  0  0  0
  -17.6844    1.7403   13.6666 O   0  0  0  0  0  0  0  0  0  0  0  0
  -15.4042    1.6282   12.9443 C   0  0  0  0  0  0  0  0  0  0  0  0
  -15.6574    0.6711   11.7740 C   0  0  0  0  0  0  0  0  0  0  0  0
  -14.3781    0.2995   11.0318 C   0  0  0  0  0  0  0  0  0  0  0  0
  -13.3422    1.4569   10.9706 C   0  0  0  0  0  0  0  0  0  0  0  0
  -13.9605    2.6285   10.1526 C   0  0  0  0  0  0  0  0  0  0  0  0
  -14.1887    2.2711    8.6794 C   0  0  0  0  0  0  0  0  0  0  0  0
  -13.2626    1.3139    8.1691 O   0  0  0  0  0  0  0  0  0  0  0  0
  -11.9837    1.4273    8.7969 C   0  0  0  0  0  0  0  0  0  0  0  0
  -10.9124    0.6304    8.0940 C   0  0  0  0  0  0  0  0  0  0  0  0
  -11.1863   -0.1553    6.9735 C   0  0  0  0  0  0  0  0  0  0  0  0
  -10.1712   -0.8993    6.3911 C   0  0  0  0  0  0  0  0  0  0  0  0
   -8.8791   -0.8492    6.9198 C   0  0  0  0  0  0  0  0  0  0  0  0
   -8.5796   -0.0682    8.0284 C   0  0  0  0  0  0  0  0  0  0  0  0
   -7.3513    0.0478    8.6124 O   0  0  0  0  0  0  0  0  0  0  0  0
   -6.2364   -0.3764    7.8441 C   0  0  0  0  0  0  0  0  0  0  0  0
   -6.1865    0.2644    6.6574 F   0  0  0  0  0  0  0  0  0  0  0  0
   -5.1056   -0.0796    8.5248 F   0  0  0  0  0  0  0  0  0  0  0  0
   -6.2487   -1.7118    7.6436 F   0  0  0  0  0  0  0  0  0  0  0  0
   -9.6035    0.6607    8.6165 C   0  0  0  0  0  0  0  0  0  0  0  0
  -12.1027    0.9085   10.2296 C   0  0  0  0  0  0  0  0  0  0  0  0
  -12.8975    1.8300   12.4372 C   0  0  0  0  0  0  0  0  0  0  0  0
  -12.5596    3.2441   12.6149 N   0  0  0  0  0  0  0  0  0  0  0  0
  -11.3030    3.6826   12.2031 C   0  0  0  0  0  0  0  0  0  0  0  0
  -10.9875    3.6718   10.9045 N   0  0  0  0  0  0  0  0  0  0  0  0
   -9.8933    4.3568   10.5247 C   0  0  0  0  0  0  0  0  0  0  0  0
   -9.0926    5.0442   11.3974 C   0  0  0  0  0  0  0  0  0  0  0  0
   -9.4451    4.9333   12.7156 C   0  0  0  0  0  0  0  0  0  0  0  0
  -10.5302    4.2543   13.1406 N   0  0  0  0  0  0  0  0  0  0  0  0
  -13.9816    1.4533   13.4778 C   0  0  0  0  0  0  0  0  0  0  0  0
  -17.7464    2.0647   12.7476 H   0  0  0  0  0  0  0  0  0  0  0  0
  -15.5216    2.6731   12.6326 H   0  0  0  0  0  0  0  0  0  0  0  0
  -16.1459   -0.2514   12.1140 H   0  0  0  0  0  0  0  0  0  0  0  0
  -16.3651    1.1390   11.0781 H   0  0  0  0  0  0  0  0  0  0  0  0
  -14.6386   -0.0722   10.0338 H   0  0  0  0  0  0  0  0  0  0  0  0
  -13.9200   -0.5512   11.5454 H   0  0  0  0  0  0  0  0  0  0  0  0
  -13.2975    3.4969   10.1607 H   0  0  0  0  0  0  0  0  0  0  0  0
  -14.8975    3.0004   10.5760 H   0  0  0  0  0  0  0  0  0  0  0  0
  -14.1362    3.1733    8.0596 H   0  0  0  0  0  0  0  0  0  0  0  0
  -15.1912    1.8515    8.5439 H   0  0  0  0  0  0  0  0  0  0  0  0
  -11.6739    2.4775    8.7508 H   0  0  0  0  0  0  0  0  0  0  0  0
  -12.1911   -0.2095    6.5628 H   0  0  0  0  0  0  0  0  0  0  0  0
  -10.3854   -1.5318    5.5321 H   0  0  0  0  0  0  0  0  0  0  0  0
   -8.1324   -1.4616    6.4219 H   0  0  0  0  0  0  0  0  0  0  0  0
   -9.3731    1.2755    9.4843 H   0  0  0  0  0  0  0  0  0  0  0  0
  -12.1436   -0.1908   10.2158 H   0  0  0  0  0  0  0  0  0  0  0  0
  -11.1819    1.1317   10.7773 H   0  0  0  0  0  0  0  0  0  0  0  0
  -12.0214    1.2334   12.7301 H   0  0  0  0  0  0  0  0  0  0  0  0
  -12.5488    3.5147   13.6116 H   0  0  0  0  0  0  0  0  0  0  0  0
   -9.6805    4.3403    9.4601 H   0  0  0  0  0  0  0  0  0  0  0  0
   -8.2234    5.5979   11.0740 H   0  0  0  0  0  0  0  0  0  0  0  0
   -8.8536    5.4046   13.4965 H   0  0  0  0  0  0  0  0  0  0  0  0
  -13.8500    2.0117   14.4087 H   0  0  0  0  0  0  0  0  0  0  0  0
  -13.8374    0.4032   13.7624 H   0  0  0  0  0  0  0  0  0  0  0  0
  1  2  2  0
  2  3  1  0
  2  4  1  0
  4  5  1  0
  5  6  1  0
  6  7  1  0
  7  8  1  0
  8  9  1  0
  9 10  1  0
 10 11  1  0
 11 12  1  0
 12 13  2  0
 13 14  1  0
 14 15  2  0
 15 16  1  0
 16 17  1  0
 17 18  1  0
 18 19  1  0
 18 20  1  0
 18 21  1  0
 16 22  2  0
 11 23  1  0
  7 24  1  0
 24 25  1  0
 25 26  1  0
 26 27  2  0
 27 28  1  0
 28 29  2  0
 29 30  1  0
 30 31  2  0
 24 32  1  0
 32  4  1  0
 23  7  1  0
 31 26  1  0
 22 12  1  0
  3 33  1  0
  4 34  1  0
  5 35  1  0
  5 36  1  0
  6 37  1  0
  6 38  1  0
  8 39  1  0
  8 40  1  0
  9 41  1  0
  9 42  1  0
 11 43  1  0
 13 44  1  0
 14 45  1  0
 15 46  1  0
 22 47  1  0
 23 48  1  0
 23 49  1  0
 24 50  1  0
 25 51  1  0
 28 52  1  0
 29 53  1  0
 30 54  1  0
 32 55  1  0
 32 56  1  0
M  END
>  <Energy>  (77) 
-32.217952031517676

>  <compound_id>  (77) 
3145

>  <target_id>  (77) 
1

>  <reference_id>  (77) 
100

>  <inspiration_ids>  (77) 
[100, 37]

>  <energy_score>  (77) 
-62.07813751210929

>  <distance_score>  (77) 
1.9933293261417435

>  <path>  (77) 
/opt/xchem-fragalysis-2/maxwin/BulkDock/SCRATCH/505734/C3145-P100/C3145-P100.minimised.mol

>  <scratch_subdir>  (77) 
/opt/xchem-fragalysis-2/maxwin/BulkDock/SCRATCH/505734/C3145-P100

>  <fragmenstein_runtime>  (77) 
9.921889543533325

>  <fragmenstein_outcome>  (77) 
too moved

>  <fragmenstein_mode>  (77) 
expansion

>  <fragmenstein_error>  (77) 


$$$$
C3145-P37
     RDKit          3D

 56 59  0  0  0  0  0  0  0  0999 V2000
  -16.2591    1.0530   14.9858 O   0  0  0  0  0  0  0  0  0  0  0  0
  -16.5071    1.3515   13.8272 C   0  0  0  0  0  0  0  0  0  0  0  0
  -17.7732    1.5680   13.4085 O   0  0  0  0  0  0  0  0  0  0  0  0
  -15.4716    1.5485   12.7401 C   0  0  0  0  0  0  0  0  0  0  0  0
  -15.6469    0.5085   11.6275 C   0  0  0  0  0  0  0  0  0  0  0  0
  -14.3283    0.1551   10.9420 C   0  0  0  0  0  0  0  0  0  0  0  0
  -13.3459    1.3514   10.8304 C   0  0  0  0  0  0  0  0  0  0  0  0
  -14.0022    2.4182    9.9072 C   0  0  0  0  0  0  0  0  0  0  0  0
  -14.1512    1.9266    8.4536 C   0  0  0  0  0  0  0  0  0  0  0  0
  -13.1215    1.0238    8.0313 O   0  0  0  0  0  0  0  0  0  0  0  0
  -11.9064    1.2922    8.7225 C   0  0  0  0  0  0  0  0  0  0  0  0
  -10.6979    0.5822    8.1762 C   0  0  0  0  0  0  0  0  0  0  0  0
  -10.7643   -0.6533    7.5310 C   0  0  0  0  0  0  0  0  0  0  0  0
   -9.5882   -1.3321    7.2231 C   0  0  0  0  0  0  0  0  0  0  0  0
   -8.3522   -0.7631    7.5355 C   0  0  0  0  0  0  0  0  0  0  0  0
   -8.2833    0.4874    8.1262 C   0  0  0  0  0  0  0  0  0  0  0  0
   -7.0530    1.0290    8.3602 O   0  0  0  0  0  0  0  0  0  0  0  0
   -6.8275    2.1623    7.5242 C   0  0  0  0  0  0  0  0  0  0  0  0
   -7.0206    1.8663    6.2206 F   0  0  0  0  0  0  0  0  0  0  0  0
   -7.6209    3.2024    7.8691 F   0  0  0  0  0  0  0  0  0  0  0  0
   -5.5431    2.5630    7.6716 F   0  0  0  0  0  0  0  0  0  0  0  0
   -9.4478    1.1333    8.4924 C   0  0  0  0  0  0  0  0  0  0  0  0
  -12.0504    0.8348   10.1702 C   0  0  0  0  0  0  0  0  0  0  0  0
  -12.9608    1.8225   12.2810 C   0  0  0  0  0  0  0  0  0  0  0  0
  -12.6638    3.2529   12.3830 N   0  0  0  0  0  0  0  0  0  0  0  0
  -11.3905    3.6653   11.9817 C   0  0  0  0  0  0  0  0  0  0  0  0
  -11.1368    3.8303   10.6795 N   0  0  0  0  0  0  0  0  0  0  0  0
  -10.0341    4.5286   10.3506 C   0  0  0  0  0  0  0  0  0  0  0  0
   -9.1664    5.0504   11.2720 C   0  0  0  0  0  0  0  0  0  0  0  0
   -9.4612    4.7584   12.5770 C   0  0  0  0  0  0  0  0  0  0  0  0
  -10.5506    4.0602   12.9516 N   0  0  0  0  0  0  0  0  0  0  0  0
  -14.0573    1.4682   13.3135 C   0  0  0  0  0  0  0  0  0  0  0  0
  -17.8411    1.8092   12.4645 H   0  0  0  0  0  0  0  0  0  0  0  0
  -15.6254    2.5646   12.3567 H   0  0  0  0  0  0  0  0  0  0  0  0
  -16.0989   -0.4137   12.0152 H   0  0  0  0  0  0  0  0  0  0  0  0
  -16.3571    0.8948   10.8858 H   0  0  0  0  0  0  0  0  0  0  0  0
  -14.5382   -0.3009    9.9677 H   0  0  0  0  0  0  0  0  0  0  0  0
  -13.8404   -0.6244   11.5289 H   0  0  0  0  0  0  0  0  0  0  0  0
  -13.3941    3.3257    9.8757 H   0  0  0  0  0  0  0  0  0  0  0  0
  -14.9771    2.7581   10.2677 H   0  0  0  0  0  0  0  0  0  0  0  0
  -14.1625    2.7826    7.7694 H   0  0  0  0  0  0  0  0  0  0  0  0
  -15.1061    1.4059    8.3263 H   0  0  0  0  0  0  0  0  0  0  0  0
  -11.7084    2.3675    8.6379 H   0  0  0  0  0  0  0  0  0  0  0  0
  -11.7270   -1.1153    7.3273 H   0  0  0  0  0  0  0  0  0  0  0  0
   -9.6356   -2.3148    6.7622 H   0  0  0  0  0  0  0  0  0  0  0  0
   -7.4411   -1.3006    7.2861 H   0  0  0  0  0  0  0  0  0  0  0  0
   -9.3925    2.0706    9.0383 H   0  0  0  0  0  0  0  0  0  0  0  0
  -12.0352   -0.2642   10.2160 H   0  0  0  0  0  0  0  0  0  0  0  0
  -11.1568    1.1391   10.7282 H   0  0  0  0  0  0  0  0  0  0  0  0
  -12.0778    1.2685   12.6338 H   0  0  0  0  0  0  0  0  0  0  0  0
  -12.6197    3.5242   13.3799 H   0  0  0  0  0  0  0  0  0  0  0  0
   -9.8744    4.6728    9.2860 H   0  0  0  0  0  0  0  0  0  0  0  0
   -8.2979    5.6261   10.9873 H   0  0  0  0  0  0  0  0  0  0  0  0
   -8.8209    5.0960   13.3879 H   0  0  0  0  0  0  0  0  0  0  0  0
  -13.9717    2.0865   14.2074 H   0  0  0  0  0  0  0  0  0  0  0  0
  -13.8790    0.4459   13.6706 H   0  0  0  0  0  0  0  0  0  0  0  0
  1  2  2  0
  2  3  1  0
  2  4  1  0
  4  5  1  0
  5  6  1  0
  6  7  1  0
  7  8  1  0
  8  9  1  0
  9 10  1  0
 10 11  1  0
 11 12  1  0
 12 13  2  0
 13 14  1  0
 14 15  2  0
 15 16  1  0
 16 17  1  0
 17 18  1  0
 18 19  1  0
 18 20  1  0
 18 21  1  0
 16 22  2  0
 11 23  1  0
  7 24  1  0
 24 25  1  0
 25 26  1  0
 26 27  2  0
 27 28  1  0
 28 29  2  0
 29 30  1  0
 30 31  2  0
 24 32  1  0
 32  4  1  0
 23  7  1  0
 31 26  1  0
 22 12  1  0
  3 33  1  0
  4 34  1  0
  5 35  1  0
  5 36  1  0
  6 37  1  0
  6 38  1  0
  8 39  1  0
  8 40  1  0
  9 41  1  0
  9 42  1  0
 11 43  1  0
 13 44  1  0
 14 45  1  0
 15 46  1  0
 22 47  1  0
 23 48  1  0
 23 49  1  0
 24 50  1  0
 25 51  1  0
 28 52  1  0
 29 53  1  0
 30 54  1  0
 32 55  1  0
 32 56  1  0
M  END
>  <Energy>  (78) 
-28.446440873933774

>  <compound_id>  (78) 
3145

>  <target_id>  (78) 
1

>  <reference_id>  (78) 
37

>  <inspiration_ids>  (78) 
[100, 37]

>  <energy_score>  (78) 
-58.306626354528106

>  <distance_score>  (78) 
1.9210692061699364

>  <path>  (78) 
/opt/xchem-fragalysis-2/maxwin/BulkDock/SCRATCH/505734/C3145-P37/C3145-P37.minimised.mol

>  <scratch_subdir>  (78) 
/opt/xchem-fragalysis-2/maxwin/BulkDock/SCRATCH/505734/C3145-P37

>  <fragmenstein_runtime>  (78) 
10.41669511795044

>  <fragmenstein_outcome>  (78) 
too moved

>  <fragmenstein_mode>  (78) 
expansion

>  <fragmenstein_error>  (78) 


$$$$
C3146-P100
     RDKit          3D

 58 61  0  0  0  0  0  0  0  0999 V2000
  -21.0478    4.4022   20.2447 C   0  0  0  0  0  0  0  0  0  0  0  0
  -21.2805    2.7218   19.7874 S   0  0  0  0  0  0  0  0  0  0  0  0
  -20.8639    1.8988   20.9051 O   0  0  0  0  0  0  0  0  0  0  0  0
  -22.5874    2.5607   19.1903 O   0  0  0  0  0  0  0  0  0  0  0  0
  -20.1203    2.5790   18.4945 C   0  0  0  0  0  0  0  0  0  0  0  0
  -20.4460    2.9535   17.1891 C   0  0  0  0  0  0  0  0  0  0  0  0
  -19.5243    2.7637   16.1247 C   0  0  0  0  0  0  0  0  0  0  0  0
  -18.2584    2.2182   16.3205 C   0  0  0  0  0  0  0  0  0  0  0  0
  -17.0300    2.1095   15.1910 C   0  0  0  0  0  0  0  0  0  0  0  0
  -17.0566    1.9904   13.5998 C   0  0  0  0  0  0  0  0  0  0  0  0
  -15.7235    1.4152   12.7475 C   0  0  0  0  0  0  0  0  0  0  0  0
  -15.0852    0.4042   13.6661 C   0  0  0  0  0  0  0  0  0  0  0  0
  -14.8490    1.0422   15.0039 C   0  0  0  0  0  0  0  0  0  0  0  0
  -16.0854    1.1725   15.6940 O   0  0  0  0  0  0  0  0  0  0  0  0
  -16.3093    0.6207   11.5043 C   0  0  0  0  0  0  0  0  0  0  0  0
  -16.0312    1.2185   10.1196 C   0  0  0  0  0  0  0  0  0  0  0  0
  -15.9590    2.7579   10.0693 C   0  0  0  0  0  0  0  0  0  0  0  0
  -17.2980    3.4426    9.9098 C   0  0  0  0  0  0  0  0  0  0  0  0
  -17.4659    4.6436    9.7665 O   0  0  0  0  0  0  0  0  0  0  0  0
  -18.3632    2.6237    9.9362 O   0  0  0  0  0  0  0  0  0  0  0  0
  -15.1662    3.3824   11.2390 C   0  0  0  0  0  0  0  0  0  0  0  0
  -14.5398    2.3027   12.0973 C   0  0  0  0  0  0  0  0  0  0  0  0
  -13.3759    2.7516   12.8804 N   0  0  0  0  0  0  0  0  0  0  0  0
  -12.1991    3.1276   12.1990 C   0  0  0  0  0  0  0  0  0  0  0  0
  -12.0140    2.8031   10.9104 N   0  0  0  0  0  0  0  0  0  0  0  0
  -10.9157    3.2947   10.2920 C   0  0  0  0  0  0  0  0  0  0  0  0
   -9.9857    4.0979   10.8989 C   0  0  0  0  0  0  0  0  0  0  0  0
  -10.2213    4.3396   12.2222 C   0  0  0  0  0  0  0  0  0  0  0  0
  -11.2950    3.8558   12.8794 N   0  0  0  0  0  0  0  0  0  0  0  0
  -18.0382    1.8555   17.6967 C   0  0  0  0  0  0  0  0  0  0  0  0
  -18.9029    2.0334   18.7731 C   0  0  0  0  0  0  0  0  0  0  0  0
  -21.8072    4.6589   20.9871 H   0  0  0  0  0  0  0  0  0  0  0  0
  -20.0596    4.4947   20.6961 H   0  0  0  0  0  0  0  0  0  0  0  0
  -21.1636    5.0440   19.3702 H   0  0  0  0  0  0  0  0  0  0  0  0
  -21.4352    3.3485   16.9609 H   0  0  0  0  0  0  0  0  0  0  0  0
  -19.8554    3.0045   15.1246 H   0  0  0  0  0  0  0  0  0  0  0  0
  -16.5749    3.0828   15.2856 H   0  0  0  0  0  0  0  0  0  0  0  0
  -17.3095    2.9574   13.1829 H   0  0  0  0  0  0  0  0  0  0  0  0
  -17.9041    1.3265   13.3921 H   0  0  0  0  0  0  0  0  0  0  0  0
  -14.1429    0.0410   13.2450 H   0  0  0  0  0  0  0  0  0  0  0  0
  -15.7780   -0.4390   13.7655 H   0  0  0  0  0  0  0  0  0  0  0  0
  -14.3257    1.9839   14.9359 H   0  0  0  0  0  0  0  0  0  0  0  0
  -14.2137    0.3979   15.6036 H   0  0  0  0  0  0  0  0  0  0  0  0
  -15.9173   -0.4059   11.4909 H   0  0  0  0  0  0  0  0  0  0  0  0
  -17.3940    0.5006   11.6018 H   0  0  0  0  0  0  0  0  0  0  0  0
  -15.0741    0.8183    9.7564 H   0  0  0  0  0  0  0  0  0  0  0  0
  -16.7694    0.8328    9.4052 H   0  0  0  0  0  0  0  0  0  0  0  0
  -15.4297    2.9961    9.1351 H   0  0  0  0  0  0  0  0  0  0  0  0
  -19.1218    3.2268    9.7853 H   0  0  0  0  0  0  0  0  0  0  0  0
  -14.4060    4.0477   10.8122 H   0  0  0  0  0  0  0  0  0  0  0  0
  -15.7924    4.0362   11.8552 H   0  0  0  0  0  0  0  0  0  0  0  0
  -14.0512    1.5872   11.4227 H   0  0  0  0  0  0  0  0  0  0  0  0
  -13.4650    3.4259   13.6451 H   0  0  0  0  0  0  0  0  0  0  0  0
  -10.8144    3.0138    9.2478 H   0  0  0  0  0  0  0  0  0  0  0  0
   -9.1273    4.4929   10.3768 H   0  0  0  0  0  0  0  0  0  0  0  0
   -9.5450    4.9486   12.8146 H   0  0  0  0  0  0  0  0  0  0  0  0
  -17.0952    1.3888   17.9759 H   0  0  0  0  0  0  0  0  0  0  0  0
  -18.6144    1.6943   19.7641 H   0  0  0  0  0  0  0  0  0  0  0  0
  1  2  1  0
  2  3  2  0
  2  4  2  0
  2  5  1  0
  5  6  2  0
  6  7  1  0
  7  8  2  0
  8  9  1  0
  9 10  1  0
 10 11  1  0
 11 12  1  0
 12 13  1  0
 13 14  1  0
 11 15  1  0
 15 16  1  0
 16 17  1  0
 17 18  1  0
 18 19  2  0
 18 20  1  0
 17 21  1  0
 21 22  1  0
 22 23  1  0
 23 24  1  0
 24 25  2  0
 25 26  1  0
 26 27  2  0
 27 28  1  0
 28 29  2  0
  8 30  1  0
 30 31  2  0
 31  5  1  0
 14  9  1  0
 29 24  1  0
 22 11  1  0
  1 32  1  0
  1 33  1  0
  1 34  1  0
  6 35  1  0
  7 36  1  0
  9 37  1  0
 10 38  1  0
 10 39  1  0
 12 40  1  0
 12 41  1  0
 13 42  1  0
 13 43  1  0
 15 44  1  0
 15 45  1  0
 16 46  1  0
 16 47  1  0
 17 48  1  0
 20 49  1  0
 21 50  1  0
 21 51  1  0
 22 52  1  0
 23 53  1  0
 26 54  1  0
 27 55  1  0
 28 56  1  0
 30 57  1  0
 31 58  1  0
M  END
>  <Energy>  (79) 
36.395248667015174

>  <compound_id>  (79) 
3146

>  <target_id>  (79) 
1

>  <reference_id>  (79) 
100

>  <inspiration_ids>  (79) 
[100, 43]

>  <energy_score>  (79) 
-16.946645722931947

>  <distance_score>  (79) 
3.5756200276055385

>  <path>  (79) 
/opt/xchem-fragalysis-2/maxwin/BulkDock/SCRATCH/505734/C3146-P100/C3146-P100.minimised.mol

>  <scratch_subdir>  (79) 
/opt/xchem-fragalysis-2/maxwin/BulkDock/SCRATCH/505734/C3146-P100

>  <fragmenstein_runtime>  (79) 
8.881000280380249

>  <fragmenstein_outcome>  (79) 
too moved

>  <fragmenstein_mode>  (79) 
expansion

>  <fragmenstein_error>  (79) 


$$$$
C3146-P43
     RDKit          3D

 58 61  0  0  0  0  0  0  0  0999 V2000
  -20.0800    1.3461   20.6639 C   0  0  0  0  0  0  0  0  0  0  0  0
  -21.4207    1.9878   19.6964 S   0  0  0  0  0  0  0  0  0  0  0  0
  -22.3287    0.9081   19.3647 O   0  0  0  0  0  0  0  0  0  0  0  0
  -21.8914    3.2043   20.3191 O   0  0  0  0  0  0  0  0  0  0  0  0
  -20.5690    2.4663   18.2549 C   0  0  0  0  0  0  0  0  0  0  0  0
  -20.7290    1.8085   17.0491 C   0  0  0  0  0  0  0  0  0  0  0  0
  -19.7363    1.9128   16.0437 C   0  0  0  0  0  0  0  0  0  0  0  0
  -18.5696    2.6574   16.2172 C   0  0  0  0  0  0  0  0  0  0  0  0
  -17.2587    2.4313   15.2183 C   0  0  0  0  0  0  0  0  0  0  0  0
  -17.2601    2.1959   13.6476 C   0  0  0  0  0  0  0  0  0  0  0  0
  -15.9001    1.5600   12.8986 C   0  0  0  0  0  0  0  0  0  0  0  0
  -15.3811    0.4985   13.8369 C   0  0  0  0  0  0  0  0  0  0  0  0
  -15.2208    1.0976   15.2086 C   0  0  0  0  0  0  0  0  0  0  0  0
  -16.4934    1.3730   15.8093 O   0  0  0  0  0  0  0  0  0  0  0  0
  -16.4445    0.8432   11.6103 C   0  0  0  0  0  0  0  0  0  0  0  0
  -16.9646    1.8576   10.5913 C   0  0  0  0  0  0  0  0  0  0  0  0
  -16.0301    3.0529   10.2974 C   0  0  0  0  0  0  0  0  0  0  0  0
  -16.8195    4.1950    9.7049 C   0  0  0  0  0  0  0  0  0  0  0  0
  -17.8840    4.6288   10.1138 O   0  0  0  0  0  0  0  0  0  0  0  0
  -16.2113    4.7559    8.6441 O   0  0  0  0  0  0  0  0  0  0  0  0
  -15.2417    3.5793   11.5125 C   0  0  0  0  0  0  0  0  0  0  0  0
  -14.6686    2.3992   12.2647 C   0  0  0  0  0  0  0  0  0  0  0  0
  -13.4319    2.6870   13.0222 N   0  0  0  0  0  0  0  0  0  0  0  0
  -12.2709    3.0153   12.2709 C   0  0  0  0  0  0  0  0  0  0  0  0
  -12.2076    2.7621   10.9548 N   0  0  0  0  0  0  0  0  0  0  0  0
  -11.1307    3.2178   10.2735 C   0  0  0  0  0  0  0  0  0  0  0  0
  -10.1045    3.9248   10.8416 C   0  0  0  0  0  0  0  0  0  0  0  0
  -10.2203    4.1009   12.1905 C   0  0  0  0  0  0  0  0  0  0  0  0
  -11.2642    3.6393   12.9106 N   0  0  0  0  0  0  0  0  0  0  0  0
  -18.6113    3.4579   17.4121 C   0  0  0  0  0  0  0  0  0  0  0  0
  -19.5645    3.3753   18.4158 C   0  0  0  0  0  0  0  0  0  0  0  0
  -19.3795    2.1421   20.9208 H   0  0  0  0  0  0  0  0  0  0  0  0
  -20.5045    0.9348   21.5832 H   0  0  0  0  0  0  0  0  0  0  0  0
  -19.5827    0.5492   20.1105 H   0  0  0  0  0  0  0  0  0  0  0  0
  -21.5439    1.0985   16.9114 H   0  0  0  0  0  0  0  0  0  0  0  0
  -19.8514    1.2936   15.1538 H   0  0  0  0  0  0  0  0  0  0  0  0
  -16.6605    3.3225   15.2913 H   0  0  0  0  0  0  0  0  0  0  0  0
  -17.5725    3.1024   13.1308 H   0  0  0  0  0  0  0  0  0  0  0  0
  -18.0662    1.4697   13.4756 H   0  0  0  0  0  0  0  0  0  0  0  0
  -14.4291    0.0971   13.4759 H   0  0  0  0  0  0  0  0  0  0  0  0
  -16.1091   -0.3205   13.8775 H   0  0  0  0  0  0  0  0  0  0  0  0
  -14.5811    1.9680   15.1855 H   0  0  0  0  0  0  0  0  0  0  0  0
  -14.7164    0.3838   15.8541 H   0  0  0  0  0  0  0  0  0  0  0  0
  -15.6694    0.2173   11.1474 H   0  0  0  0  0  0  0  0  0  0  0  0
  -17.2556    0.1485   11.8650 H   0  0  0  0  0  0  0  0  0  0  0  0
  -17.9374    2.2252   10.9421 H   0  0  0  0  0  0  0  0  0  0  0  0
  -17.1851    1.3385    9.6495 H   0  0  0  0  0  0  0  0  0  0  0  0
  -15.3074    2.7099    9.5439 H   0  0  0  0  0  0  0  0  0  0  0  0
  -16.8040    5.4921    8.3851 H   0  0  0  0  0  0  0  0  0  0  0  0
  -14.4621    4.2610   11.1518 H   0  0  0  0  0  0  0  0  0  0  0  0
  -15.8699    4.1927   12.1688 H   0  0  0  0  0  0  0  0  0  0  0  0
  -14.2778    1.7093   11.5026 H   0  0  0  0  0  0  0  0  0  0  0  0
  -13.4279    3.3692   13.7861 H   0  0  0  0  0  0  0  0  0  0  0  0
  -11.1336    2.9916    9.2112 H   0  0  0  0  0  0  0  0  0  0  0  0
   -9.2668    4.2953   10.2708 H   0  0  0  0  0  0  0  0  0  0  0  0
   -9.4625    4.6361   12.7540 H   0  0  0  0  0  0  0  0  0  0  0  0
  -17.9086    4.2192   17.6945 H   0  0  0  0  0  0  0  0  0  0  0  0
  -19.4578    3.9635   19.3235 H   0  0  0  0  0  0  0  0  0  0  0  0
  1  2  1  0
  2  3  2  0
  2  4  2  0
  2  5  1  0
  5  6  2  0
  6  7  1  0
  7  8  2  0
  8  9  1  0
  9 10  1  0
 10 11  1  0
 11 12  1  0
 12 13  1  0
 13 14  1  0
 11 15  1  0
 15 16  1  0
 16 17  1  0
 17 18  1  0
 18 19  2  0
 18 20  1  0
 17 21  1  0
 21 22  1  0
 22 23  1  0
 23 24  1  0
 24 25  2  0
 25 26  1  0
 26 27  2  0
 27 28  1  0
 28 29  2  0
  8 30  1  0
 30 31  2  0
 31  5  1  0
 14  9  1  0
 29 24  1  0
 22 11  1  0
  1 32  1  0
  1 33  1  0
  1 34  1  0
  6 35  1  0
  7 36  1  0
  9 37  1  0
 10 38  1  0
 10 39  1  0
 12 40  1  0
 12 41  1  0
 13 42  1  0
 13 43  1  0
 15 44  1  0
 15 45  1  0
 16 46  1  0
 16 47  1  0
 17 48  1  0
 20 49  1  0
 21 50  1  0
 21 51  1  0
 22 52  1  0
 23 53  1  0
 26 54  1  0
 27 55  1  0
 28 56  1  0
 30 57  1  0
 31 58  1  0
M  END
>  <Energy>  (80) 
32.257443384018785

>  <compound_id>  (80) 
3146

>  <target_id>  (80) 
1

>  <reference_id>  (80) 
43

>  <inspiration_ids>  (80) 
[100, 43]

>  <energy_score>  (80) 
-21.084451005929196

>  <distance_score>  (80) 
3.9303649455764673

>  <path>  (80) 
/opt/xchem-fragalysis-2/maxwin/BulkDock/SCRATCH/505734/C3146-P43/C3146-P43.minimised.mol

>  <scratch_subdir>  (80) 
/opt/xchem-fragalysis-2/maxwin/BulkDock/SCRATCH/505734/C3146-P43

>  <fragmenstein_runtime>  (80) 
8.050913095474243

>  <fragmenstein_outcome>  (80) 
too moved

>  <fragmenstein_mode>  (80) 
expansion

>  <fragmenstein_error>  (80) 


$$$$
C3147-P100
     RDKit          3D

 63 67  0  0  0  0  0  0  0  0999 V2000
  -15.1191    2.2356    8.0352 O   0  0  0  0  0  0  0  0  0  0  0  0
  -14.0547    1.7888    8.4217 C   0  0  0  0  0  0  0  0  0  0  0  0
  -12.9391    1.5476    7.6920 O   0  0  0  0  0  0  0  0  0  0  0  0
  -12.9927    2.0186    6.3393 C   0  0  0  0  0  0  0  0  0  0  0  0
  -11.6026    2.1540    5.7426 C   0  0  0  0  0  0  0  0  0  0  0  0
  -10.4928    2.4605    6.5335 C   0  0  0  0  0  0  0  0  0  0  0  0
   -9.2312    2.6189    5.9379 C   0  0  0  0  0  0  0  0  0  0  0  0
   -8.0070    2.9007    6.7814 C   0  0  0  0  0  0  0  0  0  0  0  0
   -7.2159    1.6628    7.2322 C   0  0  0  0  0  0  0  0  0  0  0  0
   -6.3681    1.0881    6.1060 C   0  0  0  0  0  0  0  0  0  0  0  0
   -5.4137    1.7101    5.6394 O   0  0  0  0  0  0  0  0  0  0  0  0
   -6.7042   -0.1332    5.6062 N   0  0  0  0  0  0  0  0  0  0  0  0
   -7.9061   -0.8038    6.0035 C   0  0  0  0  0  0  0  0  0  0  0  0
   -7.9807   -2.2186    5.4417 C   0  0  0  0  0  0  0  0  0  0  0  0
   -7.6988   -3.2421    6.5235 C   0  0  0  0  0  0  0  0  0  0  0  0
   -8.7725   -3.1077    7.6016 C   0  0  0  0  0  0  0  0  0  0  0  0
   -9.1103   -1.6641    7.9679 C   0  0  0  0  0  0  0  0  0  0  0  0
   -7.9794   -0.7704    7.5254 C   0  0  0  0  0  0  0  0  0  0  0  0
   -8.1084    0.6694    7.9452 C   0  0  0  0  0  0  0  0  0  0  0  0
   -8.8277    1.0160    8.8822 O   0  0  0  0  0  0  0  0  0  0  0  0
   -9.1335    2.4901    4.5535 C   0  0  0  0  0  0  0  0  0  0  0  0
  -10.2825    2.2002    3.8361 C   0  0  0  0  0  0  0  0  0  0  0  0
  -11.5023    2.0327    4.3934 N   0  0  0  0  0  0  0  0  0  0  0  0
  -13.7213    1.5055    9.8263 C   0  0  0  0  0  0  0  0  0  0  0  0
  -13.4482    0.2089   10.2487 C   0  0  0  0  0  0  0  0  0  0  0  0
  -12.8881    0.0271   11.5091 C   0  0  0  0  0  0  0  0  0  0  0  0
  -12.6339    1.1060   12.3492 C   0  0  0  0  0  0  0  0  0  0  0  0
  -12.9133    2.4004   11.9285 C   0  0  0  0  0  0  0  0  0  0  0  0
  -12.3657    3.4910   12.6175 N   0  0  0  0  0  0  0  0  0  0  0  0
  -11.1639    4.0867   12.2056 C   0  0  0  0  0  0  0  0  0  0  0  0
  -10.9038    4.2132   10.8915 N   0  0  0  0  0  0  0  0  0  0  0  0
   -9.7623    4.8249   10.5441 C   0  0  0  0  0  0  0  0  0  0  0  0
   -8.8741    5.3311   11.4566 C   0  0  0  0  0  0  0  0  0  0  0  0
   -9.2011    5.1249   12.7733 C   0  0  0  0  0  0  0  0  0  0  0  0
  -10.3244    4.4983   13.1747 N   0  0  0  0  0  0  0  0  0  0  0  0
  -13.4948    2.5904   10.6748 C   0  0  0  0  0  0  0  0  0  0  0  0
  -13.4718    3.0040    6.2909 H   0  0  0  0  0  0  0  0  0  0  0  0
  -13.5716    1.3009    5.7474 H   0  0  0  0  0  0  0  0  0  0  0  0
  -10.6090    2.5619    7.6118 H   0  0  0  0  0  0  0  0  0  0  0  0
   -8.3252    3.4650    7.6682 H   0  0  0  0  0  0  0  0  0  0  0  0
   -7.3511    3.5851    6.2270 H   0  0  0  0  0  0  0  0  0  0  0  0
   -6.4800    1.9787    7.9815 H   0  0  0  0  0  0  0  0  0  0  0  0
   -6.2836   -0.3680    4.7074 H   0  0  0  0  0  0  0  0  0  0  0  0
   -8.7306   -0.2297    5.5644 H   0  0  0  0  0  0  0  0  0  0  0  0
   -7.3461   -2.3628    4.5668 H   0  0  0  0  0  0  0  0  0  0  0  0
   -9.0024   -2.3903    5.0735 H   0  0  0  0  0  0  0  0  0  0  0  0
   -6.6941   -3.1069    6.9399 H   0  0  0  0  0  0  0  0  0  0  0  0
   -7.7291   -4.2543    6.1054 H   0  0  0  0  0  0  0  0  0  0  0  0
   -8.4682   -3.6790    8.4799 H   0  0  0  0  0  0  0  0  0  0  0  0
   -9.6861   -3.5743    7.2237 H   0  0  0  0  0  0  0  0  0  0  0  0
   -9.3152   -1.5662    9.0355 H   0  0  0  0  0  0  0  0  0  0  0  0
  -10.0433   -1.3652    7.4702 H   0  0  0  0  0  0  0  0  0  0  0  0
   -7.0396   -1.1119    7.9844 H   0  0  0  0  0  0  0  0  0  0  0  0
   -8.1869    2.6078    4.0356 H   0  0  0  0  0  0  0  0  0  0  0  0
  -10.2518    2.0899    2.7558 H   0  0  0  0  0  0  0  0  0  0  0  0
  -13.5732   -0.6330    9.5724 H   0  0  0  0  0  0  0  0  0  0  0  0
  -12.5339   -0.9414   11.8275 H   0  0  0  0  0  0  0  0  0  0  0  0
  -12.1224    0.9359   13.2933 H   0  0  0  0  0  0  0  0  0  0  0  0
  -12.3158    3.4064   13.6336 H   0  0  0  0  0  0  0  0  0  0  0  0
   -9.5841    4.9040    9.4769 H   0  0  0  0  0  0  0  0  0  0  0  0
   -7.9636    5.8306   11.1597 H   0  0  0  0  0  0  0  0  0  0  0  0
   -8.5461    5.4636   13.5721 H   0  0  0  0  0  0  0  0  0  0  0  0
  -13.6455    3.6032   10.3055 H   0  0  0  0  0  0  0  0  0  0  0  0
  1  2  2  0
  2  3  1  0
  3  4  1  0
  4  5  1  0
  5  6  2  0
  6  7  1  0
  7  8  1  0
  8  9  1  0
  9 10  1  0
 10 11  2  0
 10 12  1  0
 12 13  1  0
 13 14  1  0
 14 15  1  0
 15 16  1  0
 16 17  1  0
 17 18  1  0
 18 19  1  0
 19 20  2  0
  7 21  2  0
 21 22  1  0
 22 23  2  0
  2 24  1  0
 24 25  2  0
 25 26  1  0
 26 27  2  0
 27 28  1  0
 28 29  1  0
 29 30  1  0
 30 31  2  0
 31 32  1  0
 32 33  2  0
 33 34  1  0
 34 35  2  0
 28 36  2  0
 23  5  1  0
 36 24  1  0
 19  9  1  0
 35 30  1  0
 18 13  1  0
  4 37  1  0
  4 38  1  0
  6 39  1  0
  8 40  1  0
  8 41  1  0
  9 42  1  0
 12 43  1  0
 13 44  1  0
 14 45  1  0
 14 46  1  0
 15 47  1  0
 15 48  1  0
 16 49  1  0
 16 50  1  0
 17 51  1  0
 17 52  1  0
 18 53  1  0
 21 54  1  0
 22 55  1  0
 25 56  1  0
 26 57  1  0
 27 58  1  0
 29 59  1  0
 32 60  1  0
 33 61  1  0
 34 62  1  0
 36 63  1  0
M  END
>  <Energy>  (81) 
-17.082171607825348

>  <compound_id>  (81) 
3147

>  <target_id>  (81) 
1

>  <reference_id>  (81) 
100

>  <inspiration_ids>  (81) 
[100, 69]

>  <energy_score>  (81) 
-52.64669322914855

>  <distance_score>  (81) 
3.3953994685282787

>  <path>  (81) 
/opt/xchem-fragalysis-2/maxwin/BulkDock/SCRATCH/505734/C3147-P100/C3147-P100.minimised.mol

>  <scratch_subdir>  (81) 
/opt/xchem-fragalysis-2/maxwin/BulkDock/SCRATCH/505734/C3147-P100

>  <fragmenstein_runtime>  (81) 
7.966941595077515

>  <fragmenstein_outcome>  (81) 
too moved

>  <fragmenstein_mode>  (81) 
expansion

>  <fragmenstein_error>  (81) 


$$$$
C3147-P69
     RDKit          3D

 63 67  0  0  0  0  0  0  0  0999 V2000
  -15.3568   -1.2923   11.0375 O   0  0  0  0  0  0  0  0  0  0  0  0
  -14.6697   -0.5002   10.4017 C   0  0  0  0  0  0  0  0  0  0  0  0
  -14.1827   -0.7432    9.1670 O   0  0  0  0  0  0  0  0  0  0  0  0
  -13.5501    0.2514    8.3295 C   0  0  0  0  0  0  0  0  0  0  0  0
  -12.0570    0.2418    8.5170 C   0  0  0  0  0  0  0  0  0  0  0  0
  -11.3116   -0.8918    8.2092 C   0  0  0  0  0  0  0  0  0  0  0  0
   -9.9441   -0.9177    8.4967 C   0  0  0  0  0  0  0  0  0  0  0  0
   -9.0848   -2.1348    8.2427 C   0  0  0  0  0  0  0  0  0  0  0  0
   -9.2759   -2.8811    6.9183 C   0  0  0  0  0  0  0  0  0  0  0  0
   -8.2276   -3.9792    6.7739 C   0  0  0  0  0  0  0  0  0  0  0  0
   -8.3575   -5.0906    7.2709 O   0  0  0  0  0  0  0  0  0  0  0  0
   -7.0699   -3.6563    6.1130 N   0  0  0  0  0  0  0  0  0  0  0  0
   -6.7069   -2.2812    6.0872 C   0  0  0  0  0  0  0  0  0  0  0  0
   -5.3742   -1.9919    5.4475 C   0  0  0  0  0  0  0  0  0  0  0  0
   -5.0725   -0.5214    5.6873 C   0  0  0  0  0  0  0  0  0  0  0  0
   -6.1972    0.4410    5.2863 C   0  0  0  0  0  0  0  0  0  0  0  0
   -7.5762    0.0103    5.7595 C   0  0  0  0  0  0  0  0  0  0  0  0
   -7.7902   -1.4492    5.4026 C   0  0  0  0  0  0  0  0  0  0  0  0
   -9.1732   -1.9053    5.7819 C   0  0  0  0  0  0  0  0  0  0  0  0
  -10.1668   -1.4464    5.2161 O   0  0  0  0  0  0  0  0  0  0  0  0
   -9.3803    0.2076    9.0995 C   0  0  0  0  0  0  0  0  0  0  0  0
  -10.1823    1.3066    9.3331 C   0  0  0  0  0  0  0  0  0  0  0  0
  -11.4965    1.3529    9.0420 N   0  0  0  0  0  0  0  0  0  0  0  0
  -14.4636    0.8082   10.9994 C   0  0  0  0  0  0  0  0  0  0  0  0
  -15.5348    1.6911   10.9269 C   0  0  0  0  0  0  0  0  0  0  0  0
  -15.3992    2.9413   11.4984 C   0  0  0  0  0  0  0  0  0  0  0  0
  -14.2187    3.2838   12.1571 C   0  0  0  0  0  0  0  0  0  0  0  0
  -13.1630    2.3777   12.2726 C   0  0  0  0  0  0  0  0  0  0  0  0
  -11.9655    2.7574   12.9058 N   0  0  0  0  0  0  0  0  0  0  0  0
  -11.0735    3.6960   12.3480 C   0  0  0  0  0  0  0  0  0  0  0  0
  -11.1208    4.0037   11.0444 N   0  0  0  0  0  0  0  0  0  0  0  0
  -10.2556    4.9262   10.5905 C   0  0  0  0  0  0  0  0  0  0  0  0
   -9.3418    5.5600   11.3906 C   0  0  0  0  0  0  0  0  0  0  0  0
   -9.3549    5.1769   12.7076 C   0  0  0  0  0  0  0  0  0  0  0  0
  -10.1990    4.2523   13.2065 N   0  0  0  0  0  0  0  0  0  0  0  0
  -13.2940    1.1182   11.6961 C   0  0  0  0  0  0  0  0  0  0  0  0
  -13.9732    1.2468    8.4989 H   0  0  0  0  0  0  0  0  0  0  0  0
  -13.7815   -0.0106    7.2909 H   0  0  0  0  0  0  0  0  0  0  0  0
  -11.8098   -1.7577    7.7824 H   0  0  0  0  0  0  0  0  0  0  0  0
   -9.2120   -2.8455    9.0545 H   0  0  0  0  0  0  0  0  0  0  0  0
   -8.0474   -1.8191    8.3665 H   0  0  0  0  0  0  0  0  0  0  0  0
  -10.2609   -3.3560    6.8534 H   0  0  0  0  0  0  0  0  0  0  0  0
   -6.3685   -4.3850    6.1742 H   0  0  0  0  0  0  0  0  0  0  0  0
   -6.5894   -1.9944    7.1364 H   0  0  0  0  0  0  0  0  0  0  0  0
   -5.3932   -2.2146    4.3736 H   0  0  0  0  0  0  0  0  0  0  0  0
   -4.5822   -2.6118    5.8848 H   0  0  0  0  0  0  0  0  0  0  0  0
   -4.1751   -0.2834    5.1093 H   0  0  0  0  0  0  0  0  0  0  0  0
   -4.8496   -0.3833    6.7523 H   0  0  0  0  0  0  0  0  0  0  0  0
   -5.9772    1.4486    5.6555 H   0  0  0  0  0  0  0  0  0  0  0  0
   -6.2115    0.5116    4.1908 H   0  0  0  0  0  0  0  0  0  0  0  0
   -7.6478    0.1671    6.8399 H   0  0  0  0  0  0  0  0  0  0  0  0
   -8.3429    0.6448    5.2997 H   0  0  0  0  0  0  0  0  0  0  0  0
   -7.7261   -1.5914    4.3142 H   0  0  0  0  0  0  0  0  0  0  0  0
   -8.3363    0.2401    9.3895 H   0  0  0  0  0  0  0  0  0  0  0  0
   -9.7723    2.1995    9.7896 H   0  0  0  0  0  0  0  0  0  0  0  0
  -16.4532    1.4160   10.4163 H   0  0  0  0  0  0  0  0  0  0  0  0
  -16.2060    3.6662   11.4302 H   0  0  0  0  0  0  0  0  0  0  0  0
  -14.1205    4.2810   12.5840 H   0  0  0  0  0  0  0  0  0  0  0  0
  -12.1652    3.1901   13.8175 H   0  0  0  0  0  0  0  0  0  0  0  0
  -10.3282    5.1433    9.5293 H   0  0  0  0  0  0  0  0  0  0  0  0
   -8.6507    6.2975   11.0097 H   0  0  0  0  0  0  0  0  0  0  0  0
   -8.6590    5.6051   13.4248 H   0  0  0  0  0  0  0  0  0  0  0  0
  -12.4776    0.4039   11.7516 H   0  0  0  0  0  0  0  0  0  0  0  0
  1  2  2  0
  2  3  1  0
  3  4  1  0
  4  5  1  0
  5  6  2  0
  6  7  1  0
  7  8  1  0
  8  9  1  0
  9 10  1  0
 10 11  2  0
 10 12  1  0
 12 13  1  0
 13 14  1  0
 14 15  1  0
 15 16  1  0
 16 17  1  0
 17 18  1  0
 18 19  1  0
 19 20  2  0
  7 21  2  0
 21 22  1  0
 22 23  2  0
  2 24  1  0
 24 25  2  0
 25 26  1  0
 26 27  2  0
 27 28  1  0
 28 29  1  0
 29 30  1  0
 30 31  2  0
 31 32  1  0
 32 33  2  0
 33 34  1  0
 34 35  2  0
 28 36  2  0
 23  5  1  0
 36 24  1  0
 19  9  1  0
 35 30  1  0
 18 13  1  0
  4 37  1  0
  4 38  1  0
  6 39  1  0
  8 40  1  0
  8 41  1  0
  9 42  1  0
 12 43  1  0
 13 44  1  0
 14 45  1  0
 14 46  1  0
 15 47  1  0
 15 48  1  0
 16 49  1  0
 16 50  1  0
 17 51  1  0
 17 52  1  0
 18 53  1  0
 21 54  1  0
 22 55  1  0
 25 56  1  0
 26 57  1  0
 27 58  1  0
 29 59  1  0
 32 60  1  0
 33 61  1  0
 34 62  1  0
 36 63  1  0
M  END
>  <Energy>  (82) 
-0.77561742563392189

>  <compound_id>  (82) 
3147

>  <target_id>  (82) 
1

>  <reference_id>  (82) 
69

>  <inspiration_ids>  (82) 
[100, 69]

>  <energy_score>  (82) 
-36.340139046955585

>  <distance_score>  (82) 
2.744519791946229

>  <path>  (82) 
/opt/xchem-fragalysis-2/maxwin/BulkDock/SCRATCH/505734/C3147-P69/C3147-P69.minimised.mol

>  <scratch_subdir>  (82) 
/opt/xchem-fragalysis-2/maxwin/BulkDock/SCRATCH/505734/C3147-P69

>  <fragmenstein_runtime>  (82) 
10.530659437179565

>  <fragmenstein_outcome>  (82) 
too moved

>  <fragmenstein_mode>  (82) 
expansion

>  <fragmenstein_error>  (82) 


$$$$
C3148-P100
     RDKit          3D

 62 66  0  0  0  0  0  0  0  0999 V2000
  -16.3218    1.1584   14.2729 O   0  0  0  0  0  0  0  0  0  0  0  0
  -16.0437    0.4430   13.3205 C   0  0  0  0  0  0  0  0  0  0  0  0
  -16.7934   -0.6349   13.0244 O   0  0  0  0  0  0  0  0  0  0  0  0
  -14.8310    0.6593   12.4762 C   0  0  0  0  0  0  0  0  0  0  0  0
  -14.5866    0.0203   11.2594 C   0  0  0  0  0  0  0  0  0  0  0  0
  -13.3676    0.2280   10.5902 C   0  0  0  0  0  0  0  0  0  0  0  0
  -12.4014    1.1271   11.0751 C   0  0  0  0  0  0  0  0  0  0  0  0
  -11.1216    1.2230   10.4637 N   0  0  0  0  0  0  0  0  0  0  0  0
  -10.6345    0.5148    9.2505 N   0  0  0  0  0  0  0  0  0  0  0  0
  -10.0871    1.3200    8.0567 S   0  0  0  0  0  0  0  0  0  0  0  0
  -10.2963    2.7322    7.8275 O   0  0  0  0  0  0  0  0  0  0  0  0
  -10.8798    0.5744    6.7288 N   0  0  0  0  0  0  0  0  0  0  0  0
  -10.2451   -0.5931    6.2198 C   0  0  0  0  0  0  0  0  0  0  0  0
   -9.5155   -0.5076    5.0138 C   0  0  0  0  0  0  0  0  0  0  0  0
   -8.6441   -1.5298    4.6304 C   0  0  0  0  0  0  0  0  0  0  0  0
   -8.4993   -2.5949    5.4952 C   0  0  0  0  0  0  0  0  0  0  0  0
   -9.2384   -2.6739    6.6648 C   0  0  0  0  0  0  0  0  0  0  0  0
  -10.1519   -1.7242    7.0197 C   0  0  0  0  0  0  0  0  0  0  0  0
   -8.8716   -3.7116    7.4794 O   0  0  0  0  0  0  0  0  0  0  0  0
   -8.2276   -4.5819    6.5427 C   0  0  0  0  0  0  0  0  0  0  0  0
   -7.5414   -3.7179    5.4949 C   0  0  0  0  0  0  0  0  0  0  0  0
   -8.4216    1.0576    7.8681 N   0  0  0  0  0  0  0  0  0  0  0  0
   -7.5731    2.1233    7.3632 C   0  0  0  0  0  0  0  0  0  0  0  0
   -6.4756    1.6225    6.4191 C   0  0  0  0  0  0  0  0  0  0  0  0
   -6.0871    0.2168    6.5697 N   0  0  0  0  0  0  0  0  0  0  0  0
   -6.2322   -0.2290    7.9615 C   0  0  0  0  0  0  0  0  0  0  0  0
   -7.6402    0.0330    8.5674 C   0  0  0  0  0  0  0  0  0  0  0  0
  -12.6711    1.8258   12.2814 C   0  0  0  0  0  0  0  0  0  0  0  0
  -11.7934    2.7475   12.8923 N   0  0  0  0  0  0  0  0  0  0  0  0
  -10.8753    3.6541   12.3665 C   0  0  0  0  0  0  0  0  0  0  0  0
  -10.7045    3.7570   11.0395 N   0  0  0  0  0  0  0  0  0  0  0  0
   -9.8108    4.6603   10.5932 C   0  0  0  0  0  0  0  0  0  0  0  0
   -9.0517    5.4382   11.4264 C   0  0  0  0  0  0  0  0  0  0  0  0
   -9.2651    5.2383   12.7666 C   0  0  0  0  0  0  0  0  0  0  0  0
  -10.1668    4.3640   13.2567 N   0  0  0  0  0  0  0  0  0  0  0  0
  -13.8753    1.5585   12.9662 C   0  0  0  0  0  0  0  0  0  0  0  0
  -16.4361   -1.3039   12.4118 H   0  0  0  0  0  0  0  0  0  0  0  0
  -15.3039   -0.6537   10.8026 H   0  0  0  0  0  0  0  0  0  0  0  0
  -13.1634   -0.3238    9.6734 H   0  0  0  0  0  0  0  0  0  0  0  0
  -10.7485    2.1737   10.5938 H   0  0  0  0  0  0  0  0  0  0  0  0
  -11.7321    0.2609    7.1812 H   0  0  0  0  0  0  0  0  0  0  0  0
   -9.5914    0.3902    4.4052 H   0  0  0  0  0  0  0  0  0  0  0  0
   -8.0491   -1.4461    3.7271 H   0  0  0  0  0  0  0  0  0  0  0  0
  -10.6689   -1.7929    7.9659 H   0  0  0  0  0  0  0  0  0  0  0  0
   -9.0194   -5.2147    6.1354 H   0  0  0  0  0  0  0  0  0  0  0  0
   -7.5089   -5.2014    7.0693 H   0  0  0  0  0  0  0  0  0  0  0  0
   -6.5795   -3.3835    5.8908 H   0  0  0  0  0  0  0  0  0  0  0  0
   -7.4112   -4.1997    4.5268 H   0  0  0  0  0  0  0  0  0  0  0  0
   -8.1455    2.8709    6.8025 H   0  0  0  0  0  0  0  0  0  0  0  0
   -7.1216    2.6614    8.2019 H   0  0  0  0  0  0  0  0  0  0  0  0
   -6.8033    1.7590    5.3810 H   0  0  0  0  0  0  0  0  0  0  0  0
   -5.5926    2.2572    6.5391 H   0  0  0  0  0  0  0  0  0  0  0  0
   -6.7648   -0.3315    6.0303 H   0  0  0  0  0  0  0  0  0  0  0  0
   -5.4628    0.2645    8.5563 H   0  0  0  0  0  0  0  0  0  0  0  0
   -6.0130   -1.3012    8.0108 H   0  0  0  0  0  0  0  0  0  0  0  0
   -8.1837   -0.9118    8.5538 H   0  0  0  0  0  0  0  0  0  0  0  0
   -7.5354    0.2966    9.6232 H   0  0  0  0  0  0  0  0  0  0  0  0
  -12.1059    3.1335   13.7889 H   0  0  0  0  0  0  0  0  0  0  0  0
   -9.7190    4.7312    9.5127 H   0  0  0  0  0  0  0  0  0  0  0  0
   -8.3277    6.1485   11.0546 H   0  0  0  0  0  0  0  0  0  0  0  0
   -8.7004    5.7893   13.5145 H   0  0  0  0  0  0  0  0  0  0  0  0
  -14.0680    2.0739   13.9072 H   0  0  0  0  0  0  0  0  0  0  0  0
  1  2  2  0
  2  3  1  0
  2  4  1  0
  4  5  2  0
  5  6  1  0
  6  7  2  0
  7  8  1  0
  8  9  1  0
  9 10  2  0
 10 11  2  0
 10 12  1  0
 12 13  1  0
 13 14  2  0
 14 15  1  0
 15 16  2  0
 16 17  1  0
 17 18  2  0
 17 19  1  0
 19 20  1  0
 20 21  1  0
 10 22  1  0
 22 23  1  0
 23 24  1  0
 24 25  1  0
 25 26  1  0
 26 27  1  0
  7 28  1  0
 28 29  1  0
 29 30  1  0
 30 31  2  0
 31 32  1  0
 32 33  2  0
 33 34  1  0
 34 35  2  0
 28 36  2  0
 36  4  1  0
 18 13  1  0
 27 22  1  0
 35 30  1  0
 21 16  1  0
  3 37  1  0
  5 38  1  0
  6 39  1  0
  8 40  1  0
 12 41  1  0
 14 42  1  0
 15 43  1  0
 18 44  1  0
 20 45  1  0
 20 46  1  0
 21 47  1  0
 21 48  1  0
 23 49  1  0
 23 50  1  0
 24 51  1  0
 24 52  1  0
 25 53  1  0
 26 54  1  0
 26 55  1  0
 27 56  1  0
 27 57  1  0
 29 58  1  0
 32 59  1  0
 33 60  1  0
 34 61  1  0
 36 62  1  0
M  END
>  <Energy>  (83) 
-60.985503728054034

>  <compound_id>  (83) 
3148

>  <target_id>  (83) 
1

>  <reference_id>  (83) 
100

>  <inspiration_ids>  (83) 
[100, 84]

>  <energy_score>  (83) 
-87.99829313797255

>  <distance_score>  (83) 
1.5911218106380474

>  <path>  (83) 
/opt/xchem-fragalysis-2/maxwin/BulkDock/SCRATCH/505734/C3148-P100/C3148-P100.minimised.mol

>  <scratch_subdir>  (83) 
/opt/xchem-fragalysis-2/maxwin/BulkDock/SCRATCH/505734/C3148-P100

>  <fragmenstein_runtime>  (83) 
22.053748846054077

>  <fragmenstein_outcome>  (83) 
too moved

>  <fragmenstein_mode>  (83) 
expansion

>  <fragmenstein_error>  (83) 


$$$$
C3148-P84
     RDKit          3D

 62 66  0  0  0  0  0  0  0  0999 V2000
  -16.1641    0.5789   14.4058 O   0  0  0  0  0  0  0  0  0  0  0  0
  -16.1463    0.4925   13.1874 C   0  0  0  0  0  0  0  0  0  0  0  0
  -17.2418    0.2509   12.4400 O   0  0  0  0  0  0  0  0  0  0  0  0
  -14.9251    0.7013   12.3739 C   0  0  0  0  0  0  0  0  0  0  0  0
  -14.6068   -0.1028   11.2826 C   0  0  0  0  0  0  0  0  0  0  0  0
  -13.4054    0.1093   10.5937 C   0  0  0  0  0  0  0  0  0  0  0  0
  -12.5158    1.1436   10.9474 C   0  0  0  0  0  0  0  0  0  0  0  0
  -11.2696    1.2336   10.2713 N   0  0  0  0  0  0  0  0  0  0  0  0
  -10.4846    0.0992    9.6408 N   0  0  0  0  0  0  0  0  0  0  0  0
  -10.2427    0.0652    8.1197 S   0  0  0  0  0  0  0  0  0  0  0  0
  -10.9501    0.8586    7.1381 O   0  0  0  0  0  0  0  0  0  0  0  0
  -10.5333   -1.5478    7.6871 N   0  0  0  0  0  0  0  0  0  0  0  0
   -9.8718   -2.0643    6.5505 C   0  0  0  0  0  0  0  0  0  0  0  0
  -10.1779   -1.5322    5.2759 C   0  0  0  0  0  0  0  0  0  0  0  0
   -9.3905   -1.8026    4.1555 C   0  0  0  0  0  0  0  0  0  0  0  0
   -8.2684   -2.5800    4.3380 C   0  0  0  0  0  0  0  0  0  0  0  0
   -7.9836   -3.1378    5.5754 C   0  0  0  0  0  0  0  0  0  0  0  0
   -8.7878   -2.9384    6.6807 C   0  0  0  0  0  0  0  0  0  0  0  0
   -6.8098   -3.8482    5.5929 O   0  0  0  0  0  0  0  0  0  0  0  0
   -6.1742   -3.4745    4.3474 C   0  0  0  0  0  0  0  0  0  0  0  0
   -7.2374   -2.9908    3.3639 C   0  0  0  0  0  0  0  0  0  0  0  0
   -8.5868    0.3643    7.8270 N   0  0  0  0  0  0  0  0  0  0  0  0
   -8.1816    1.7022    7.4048 C   0  0  0  0  0  0  0  0  0  0  0  0
   -6.7275    1.8187    6.9119 C   0  0  0  0  0  0  0  0  0  0  0  0
   -6.1587    0.5307    6.4864 N   0  0  0  0  0  0  0  0  0  0  0  0
   -6.1728   -0.3890    7.6472 C   0  0  0  0  0  0  0  0  0  0  0  0
   -7.4939   -0.3638    8.4723 C   0  0  0  0  0  0  0  0  0  0  0  0
  -12.8489    1.9689   12.0618 C   0  0  0  0  0  0  0  0  0  0  0  0
  -12.0969    3.0461   12.5663 N   0  0  0  0  0  0  0  0  0  0  0  0
  -11.0220    3.7888   12.1061 C   0  0  0  0  0  0  0  0  0  0  0  0
  -10.7146    3.8107   10.7991 N   0  0  0  0  0  0  0  0  0  0  0  0
   -9.7077    4.6231   10.4269 C   0  0  0  0  0  0  0  0  0  0  0  0
   -8.9681    5.3673   11.3112 C   0  0  0  0  0  0  0  0  0  0  0  0
   -9.3160    5.2289   12.6305 C   0  0  0  0  0  0  0  0  0  0  0  0
  -10.3373    4.4588   13.0482 N   0  0  0  0  0  0  0  0  0  0  0  0
  -14.0532    1.7182   12.7578 C   0  0  0  0  0  0  0  0  0  0  0  0
  -17.1033    0.3316   11.4765 H   0  0  0  0  0  0  0  0  0  0  0  0
  -15.2480   -0.9253   10.9779 H   0  0  0  0  0  0  0  0  0  0  0  0
  -13.1497   -0.5453    9.7601 H   0  0  0  0  0  0  0  0  0  0  0  0
  -10.8157    2.1492   10.3557 H   0  0  0  0  0  0  0  0  0  0  0  0
  -10.4553   -2.1418    8.5102 H   0  0  0  0  0  0  0  0  0  0  0  0
  -11.0406   -0.8764    5.1659 H   0  0  0  0  0  0  0  0  0  0  0  0
   -9.6468   -1.3828    3.1894 H   0  0  0  0  0  0  0  0  0  0  0  0
   -8.5222   -3.3762    7.6353 H   0  0  0  0  0  0  0  0  0  0  0  0
   -5.4499   -2.6803    4.5701 H   0  0  0  0  0  0  0  0  0  0  0  0
   -5.6241   -4.3288    3.9419 H   0  0  0  0  0  0  0  0  0  0  0  0
   -7.6063   -3.8093    2.7385 H   0  0  0  0  0  0  0  0  0  0  0  0
   -6.8684   -2.1756    2.7364 H   0  0  0  0  0  0  0  0  0  0  0  0
   -8.8180    2.0093    6.5659 H   0  0  0  0  0  0  0  0  0  0  0  0
   -8.3575    2.4256    8.2073 H   0  0  0  0  0  0  0  0  0  0  0  0
   -6.6880    2.5128    6.0645 H   0  0  0  0  0  0  0  0  0  0  0  0
   -6.0943    2.2560    7.6893 H   0  0  0  0  0  0  0  0  0  0  0  0
   -6.8246    0.1279    5.8171 H   0  0  0  0  0  0  0  0  0  0  0  0
   -5.3236   -0.1628    8.3003 H   0  0  0  0  0  0  0  0  0  0  0  0
   -6.0017   -1.4027    7.2678 H   0  0  0  0  0  0  0  0  0  0  0  0
   -7.7869   -1.3977    8.6579 H   0  0  0  0  0  0  0  0  0  0  0  0
   -7.3084    0.0695    9.4570 H   0  0  0  0  0  0  0  0  0  0  0  0
  -12.3168    3.3660   13.5098 H   0  0  0  0  0  0  0  0  0  0  0  0
   -9.4989    4.6477    9.3613 H   0  0  0  0  0  0  0  0  0  0  0  0
   -8.1502    5.9983   10.9939 H   0  0  0  0  0  0  0  0  0  0  0  0
   -8.7721    5.7489   13.4151 H   0  0  0  0  0  0  0  0  0  0  0  0
  -14.3127    2.3366   13.6175 H   0  0  0  0  0  0  0  0  0  0  0  0
  1  2  2  0
  2  3  1  0
  2  4  1  0
  4  5  2  0
  5  6  1  0
  6  7  2  0
  7  8  1  0
  8  9  1  0
  9 10  2  0
 10 11  2  0
 10 12  1  0
 12 13  1  0
 13 14  2  0
 14 15  1  0
 15 16  2  0
 16 17  1  0
 17 18  2  0
 17 19  1  0
 19 20  1  0
 20 21  1  0
 10 22  1  0
 22 23  1  0
 23 24  1  0
 24 25  1  0
 25 26  1  0
 26 27  1  0
  7 28  1  0
 28 29  1  0
 29 30  1  0
 30 31  2  0
 31 32  1  0
 32 33  2  0
 33 34  1  0
 34 35  2  0
 28 36  2  0
 36  4  1  0
 18 13  1  0
 27 22  1  0
 35 30  1  0
 21 16  1  0
  3 37  1  0
  5 38  1  0
  6 39  1  0
  8 40  1  0
 12 41  1  0
 14 42  1  0
 15 43  1  0
 18 44  1  0
 20 45  1  0
 20 46  1  0
 21 47  1  0
 21 48  1  0
 23 49  1  0
 23 50  1  0
 24 51  1  0
 24 52  1  0
 25 53  1  0
 26 54  1  0
 26 55  1  0
 27 56  1  0
 27 57  1  0
 29 58  1  0
 32 59  1  0
 33 60  1  0
 34 61  1  0
 36 62  1  0
M  END
>  <Energy>  (84) 
-65.484659586846632

>  <compound_id>  (84) 
3148

>  <target_id>  (84) 
1

>  <reference_id>  (84) 
84

>  <inspiration_ids>  (84) 
[100, 84]

>  <energy_score>  (84) 
-92.49744899676139

>  <distance_score>  (84) 
1.377809151763583

>  <path>  (84) 
/opt/xchem-fragalysis-2/maxwin/BulkDock/SCRATCH/505734/C3148-P84/C3148-P84.minimised.mol

>  <scratch_subdir>  (84) 
/opt/xchem-fragalysis-2/maxwin/BulkDock/SCRATCH/505734/C3148-P84

>  <fragmenstein_runtime>  (84) 
25.94752812385559

>  <fragmenstein_outcome>  (84) 
too moved

>  <fragmenstein_mode>  (84) 
expansion

>  <fragmenstein_error>  (84) 


$$$$
C2573-P100
     RDKit          3D

 57 60  0  0  0  0  0  0  0  0999 V2000
  -11.3031    0.4034    8.0158 O   0  0  0  0  0  0  0  0  0  0  0  0
  -11.4060   -0.4966    7.2805 C   0  0  0  0  0  0  0  0  0  0  0  0
  -12.4925   -0.5445    6.2148 C   0  0  0  0  0  0  0  0  0  0  0  0
  -13.6465   -1.4726    6.5682 C   0  0  0  0  0  0  0  0  0  0  0  0
  -14.7787   -0.8227    7.3656 C   0  0  0  0  0  0  0  0  0  0  0  0
  -14.3957   -0.3676    8.7695 C   0  0  0  0  0  0  0  0  0  0  0  0
  -15.5880   -0.4569    9.5874 O   0  0  0  0  0  0  0  0  0  0  0  0
  -15.4111   -0.3085   10.9246 C   0  0  0  0  0  0  0  0  0  0  0  0
  -15.7537   -1.1046   11.7799 O   0  0  0  0  0  0  0  0  0  0  0  0
  -14.8415    0.9934   11.2602 C   0  0  0  0  0  0  0  0  0  0  0  0
  -15.5163    2.0984   10.7474 C   0  0  0  0  0  0  0  0  0  0  0  0
  -14.9875    3.3543   10.9478 C   0  0  0  0  0  0  0  0  0  0  0  0
  -13.8021    3.4937   11.6593 C   0  0  0  0  0  0  0  0  0  0  0  0
  -13.1182    2.3848   12.1765 C   0  0  0  0  0  0  0  0  0  0  0  0
  -11.8997    2.5682   12.8705 N   0  0  0  0  0  0  0  0  0  0  0  0
  -10.9025    3.4200   12.3454 C   0  0  0  0  0  0  0  0  0  0  0  0
  -10.7485    3.5281   11.0153 N   0  0  0  0  0  0  0  0  0  0  0  0
   -9.8551    4.4197   10.5596 C   0  0  0  0  0  0  0  0  0  0  0  0
   -9.1008    5.2132   11.3841 C   0  0  0  0  0  0  0  0  0  0  0  0
   -9.2944    5.0111   12.7277 C   0  0  0  0  0  0  0  0  0  0  0  0
  -10.1788    4.1259   13.2322 N   0  0  0  0  0  0  0  0  0  0  0  0
  -13.6747    1.1186   12.0205 C   0  0  0  0  0  0  0  0  0  0  0  0
  -10.5198   -1.7540    7.1033 N   0  0  0  0  0  0  0  0  0  0  0  0
   -9.3689   -2.2130    7.8650 C   0  0  0  0  0  0  0  0  0  0  0  0
   -8.1224   -1.5030    7.4036 C   0  0  0  0  0  0  0  0  0  0  0  0
   -7.7487   -1.7023    6.0795 C   0  0  0  0  0  0  0  0  0  0  0  0
   -7.0772   -0.6803    5.4404 C   0  0  0  0  0  0  0  0  0  0  0  0
   -6.6915    0.4304    6.1932 C   0  0  0  0  0  0  0  0  0  0  0  0
   -6.0490    1.6649    5.9276 C   0  0  0  0  0  0  0  0  0  0  0  0
   -6.0491    2.3977    7.0921 C   0  0  0  0  0  0  0  0  0  0  0  0
   -6.6970    1.6532    8.0374 N   0  0  0  0  0  0  0  0  0  0  0  0
   -7.0412    0.4414    7.5287 C   0  0  0  0  0  0  0  0  0  0  0  0
   -7.7060   -0.4920    8.2057 N   0  0  0  0  0  0  0  0  0  0  0  0
  -12.8482    0.4764    6.0325 H   0  0  0  0  0  0  0  0  0  0  0  0
  -12.0291   -0.8727    5.2758 H   0  0  0  0  0  0  0  0  0  0  0  0
  -14.0910   -1.8108    5.6260 H   0  0  0  0  0  0  0  0  0  0  0  0
  -13.2914   -2.3659    7.0945 H   0  0  0  0  0  0  0  0  0  0  0  0
  -15.1819    0.0339    6.8106 H   0  0  0  0  0  0  0  0  0  0  0  0
  -15.6081   -1.5369    7.4267 H   0  0  0  0  0  0  0  0  0  0  0  0
  -14.0376    0.6660    8.7292 H   0  0  0  0  0  0  0  0  0  0  0  0
  -13.6181   -1.0055    9.2021 H   0  0  0  0  0  0  0  0  0  0  0  0
  -16.4313    1.9805   10.1729 H   0  0  0  0  0  0  0  0  0  0  0  0
  -15.4845    4.2334   10.5472 H   0  0  0  0  0  0  0  0  0  0  0  0
  -13.3975    4.4949   11.7995 H   0  0  0  0  0  0  0  0  0  0  0  0
  -12.0965    2.9955   13.7858 H   0  0  0  0  0  0  0  0  0  0  0  0
   -9.7657    4.4717    9.4790 H   0  0  0  0  0  0  0  0  0  0  0  0
   -8.3842    5.9258   11.0031 H   0  0  0  0  0  0  0  0  0  0  0  0
   -8.7238    5.5677   13.4670 H   0  0  0  0  0  0  0  0  0  0  0  0
  -13.1650    0.2419   12.4070 H   0  0  0  0  0  0  0  0  0  0  0  0
  -10.9460   -2.3760    6.4261 H   0  0  0  0  0  0  0  0  0  0  0  0
   -9.2591   -3.2945    7.7509 H   0  0  0  0  0  0  0  0  0  0  0  0
   -9.5300   -1.9318    8.9064 H   0  0  0  0  0  0  0  0  0  0  0  0
   -8.1510   -2.5299    5.5033 H   0  0  0  0  0  0  0  0  0  0  0  0
   -6.9284   -0.7148    4.3665 H   0  0  0  0  0  0  0  0  0  0  0  0
   -5.6822    2.0098    4.9695 H   0  0  0  0  0  0  0  0  0  0  0  0
   -5.7246    3.4072    7.3073 H   0  0  0  0  0  0  0  0  0  0  0  0
   -6.9950    1.9585    8.9543 H   0  0  0  0  0  0  0  0  0  0  0  0
  1  2  2  0
  2  3  1  0
  3  4  1  0
  4  5  1  0
  5  6  1  0
  6  7  1  0
  7  8  1  0
  8  9  2  0
  8 10  1  0
 10 11  2  0
 11 12  1  0
 12 13  2  0
 13 14  1  0
 14 15  1  0
 15 16  1  0
 16 17  2  0
 17 18  1  0
 18 19  2  0
 19 20  1  0
 20 21  2  0
 14 22  2  0
  2 23  1  0
 23 24  1  0
 24 25  1  0
 25 26  2  0
 26 27  1  0
 27 28  2  0
 28 29  1  0
 29 30  2  0
 30 31  1  0
 31 32  1  0
 32 33  2  0
 22 10  1  0
 33 25  1  0
 21 16  1  0
 32 28  1  0
  3 34  1  0
  3 35  1  0
  4 36  1  0
  4 37  1  0
  5 38  1  0
  5 39  1  0
  6 40  1  0
  6 41  1  0
 11 42  1  0
 12 43  1  0
 13 44  1  0
 15 45  1  0
 18 46  1  0
 19 47  1  0
 20 48  1  0
 22 49  1  0
 23 50  1  0
 24 51  1  0
 24 52  1  0
 26 53  1  0
 27 54  1  0
 29 55  1  0
 30 56  1  0
 31 57  1  0
M  END
>  <Energy>  (85) 
26.477072262163333

>  <compound_id>  (85) 
2573

>  <target_id>  (85) 
1

>  <reference_id>  (85) 
100

>  <inspiration_ids>  (85) 
[100, 91]

>  <energy_score>  (85) 
25.506315408719644

>  <distance_score>  (85) 
2.4294412320251872

>  <path>  (85) 
/opt/xchem-fragalysis-2/maxwin/BulkDock/SCRATCH/505734/C2573-P100/C2573-P100.minimised.mol

>  <scratch_subdir>  (85) 
/opt/xchem-fragalysis-2/maxwin/BulkDock/SCRATCH/505734/C2573-P100

>  <fragmenstein_runtime>  (85) 
12.298092365264893

>  <fragmenstein_outcome>  (85) 
too moved

>  <fragmenstein_mode>  (85) 
expansion

>  <fragmenstein_error>  (85) 


$$$$
C2671-P100
     RDKit          3D

 57 60  0  0  0  0  0  0  0  0999 V2000
   -6.0990    0.2723    7.7961 O   0  0  0  0  0  0  0  0  0  0  0  0
   -6.2138    1.3583    7.3690 C   0  0  0  0  0  0  0  0  0  0  0  0
   -7.4707    2.2918    7.2942 N   0  0  0  0  0  0  0  0  0  0  0  0
   -8.7986    2.0464    7.6293 C   0  0  0  0  0  0  0  0  0  0  0  0
   -9.2210    0.8819    8.2449 C   0  0  0  0  0  0  0  0  0  0  0  0
  -10.5884    0.6411    8.3654 C   0  0  0  0  0  0  0  0  0  0  0  0
  -11.5134    1.5888    7.9155 C   0  0  0  0  0  0  0  0  0  0  0  0
  -12.8860    1.3456    7.8488 N   0  0  0  0  0  0  0  0  0  0  0  0
  -13.2383    0.0486    7.2702 C   0  0  0  0  0  0  0  0  0  0  0  0
  -13.7456   -0.9330    8.3231 C   0  0  0  0  0  0  0  0  0  0  0  0
  -13.1796   -0.6925    9.6152 O   0  0  0  0  0  0  0  0  0  0  0  0
  -13.5677    0.5830   10.1832 C   0  0  0  0  0  0  0  0  0  0  0  0
  -12.5197    0.9258   11.2560 C   0  0  0  0  0  0  0  0  0  0  0  0
  -12.9510    2.1197   12.1205 C   0  0  0  0  0  0  0  0  0  0  0  0
  -11.8623    2.5175   12.9997 N   0  0  0  0  0  0  0  0  0  0  0  0
  -10.9729    3.4302   12.4214 C   0  0  0  0  0  0  0  0  0  0  0  0
  -10.9335    3.6004   11.0943 N   0  0  0  0  0  0  0  0  0  0  0  0
  -10.0780    4.5164   10.6107 C   0  0  0  0  0  0  0  0  0  0  0  0
   -9.2444    5.2637   11.3998 C   0  0  0  0  0  0  0  0  0  0  0  0
   -9.3418    5.0126   12.7433 C   0  0  0  0  0  0  0  0  0  0  0  0
  -10.1966    4.1149   13.2739 N   0  0  0  0  0  0  0  0  0  0  0  0
  -14.1956    1.7121   12.9139 C   0  0  0  0  0  0  0  0  0  0  0  0
  -15.3291    1.3954   11.9279 C   0  0  0  0  0  0  0  0  0  0  0  0
  -16.5907    0.9232   12.6120 C   0  0  0  0  0  0  0  0  0  0  0  0
  -17.7269    1.2046   12.2654 O   0  0  0  0  0  0  0  0  0  0  0  0
  -16.3892    0.0538   13.6185 O   0  0  0  0  0  0  0  0  0  0  0  0
  -14.9277    0.3431   10.8872 C   0  0  0  0  0  0  0  0  0  0  0  0
  -13.6265    1.6974    9.0757 C   0  0  0  0  0  0  0  0  0  0  0  0
  -11.1003    2.7697    7.4143 N   0  0  0  0  0  0  0  0  0  0  0  0
   -9.7717    2.9663    7.2756 C   0  0  0  0  0  0  0  0  0  0  0  0
   -5.0255    2.1763    6.8269 C   0  0  0  0  0  0  0  0  0  0  0  0
   -3.8523    1.4840    6.8335 F   0  0  0  0  0  0  0  0  0  0  0  0
   -5.3671    2.7123    5.1659 Cl  0  0  0  0  0  0  0  0  0  0  0  0
   -7.2354    3.1384    6.7861 H   0  0  0  0  0  0  0  0  0  0  0  0
   -8.5193    0.1220    8.5758 H   0  0  0  0  0  0  0  0  0  0  0  0
  -10.9062   -0.3066    8.7879 H   0  0  0  0  0  0  0  0  0  0  0  0
  -12.4048   -0.3980    6.7116 H   0  0  0  0  0  0  0  0  0  0  0  0
  -14.0265    0.1980    6.5217 H   0  0  0  0  0  0  0  0  0  0  0  0
  -13.4770   -1.9477    8.0134 H   0  0  0  0  0  0  0  0  0  0  0  0
  -14.8382   -0.8864    8.3828 H   0  0  0  0  0  0  0  0  0  0  0  0
  -11.5476    1.1081   10.7925 H   0  0  0  0  0  0  0  0  0  0  0  0
  -12.3454    0.0469   11.8944 H   0  0  0  0  0  0  0  0  0  0  0  0
  -13.2547    2.9773   11.5084 H   0  0  0  0  0  0  0  0  0  0  0  0
  -12.1496    2.9802   13.8716 H   0  0  0  0  0  0  0  0  0  0  0  0
  -10.0956    4.6379    9.5340 H   0  0  0  0  0  0  0  0  0  0  0  0
   -8.5574    5.9906   10.9943 H   0  0  0  0  0  0  0  0  0  0  0  0
   -8.7170    5.5365   13.4620 H   0  0  0  0  0  0  0  0  0  0  0  0
  -13.9716    0.8524   13.5585 H   0  0  0  0  0  0  0  0  0  0  0  0
  -14.5072    2.5233   13.5836 H   0  0  0  0  0  0  0  0  0  0  0  0
  -15.5890    2.3277   11.4082 H   0  0  0  0  0  0  0  0  0  0  0  0
  -17.2791   -0.3315   13.7735 H   0  0  0  0  0  0  0  0  0  0  0  0
  -15.7276    0.2490   10.1410 H   0  0  0  0  0  0  0  0  0  0  0  0
  -14.8978   -0.6431   11.3717 H   0  0  0  0  0  0  0  0  0  0  0  0
  -13.3155    2.6812    9.4411 H   0  0  0  0  0  0  0  0  0  0  0  0
  -14.6738    1.8334    8.7746 H   0  0  0  0  0  0  0  0  0  0  0  0
   -9.5164    3.9115    6.8073 H   0  0  0  0  0  0  0  0  0  0  0  0
   -4.8883    3.0638    7.4516 H   0  0  0  0  0  0  0  0  0  0  0  0
  1  2  2  0
  2  3  1  0
  3  4  1  0
  4  5  2  0
  5  6  1  0
  6  7  2  0
  7  8  1  0
  8  9  1  0
  9 10  1  0
 10 11  1  0
 11 12  1  0
 12 13  1  0
 13 14  1  0
 14 15  1  0
 15 16  1  0
 16 17  2  0
 17 18  1  0
 18 19  2  0
 19 20  1  0
 20 21  2  0
 14 22  1  0
 22 23  1  0
 23 24  1  0
 24 25  2  0
 24 26  1  0
 23 27  1  0
 12 28  1  0
  7 29  1  0
 29 30  2  0
  2 31  1  0
 31 32  1  0
 31 33  1  0
 30  4  1  0
 28  8  1  0
 27 12  1  0
 21 16  1  0
  3 34  1  0
  5 35  1  0
  6 36  1  0
  9 37  1  0
  9 38  1  0
 10 39  1  0
 10 40  1  0
 13 41  1  0
 13 42  1  0
 14 43  1  0
 15 44  1  0
 18 45  1  0
 19 46  1  0
 20 47  1  0
 22 48  1  0
 22 49  1  0
 23 50  1  0
 26 51  1  0
 27 52  1  0
 27 53  1  0
 28 54  1  0
 28 55  1  0
 30 56  1  0
 31 57  1  0
M  END
>  <Energy>  (86) 
33.972895332102354

>  <compound_id>  (86) 
2671

>  <target_id>  (86) 
1

>  <reference_id>  (86) 
100

>  <inspiration_ids>  (86) 
[100, 126]

>  <energy_score>  (86) 
-42.654566255119306

>  <distance_score>  (86) 
1.366535441256981

>  <path>  (86) 
/opt/xchem-fragalysis-2/maxwin/BulkDock/SCRATCH/505734/C2671-P100/C2671-P100.minimised.mol

>  <scratch_subdir>  (86) 
/opt/xchem-fragalysis-2/maxwin/BulkDock/SCRATCH/505734/C2671-P100

>  <fragmenstein_runtime>  (86) 
6.450182914733887

>  <fragmenstein_outcome>  (86) 
too moved

>  <fragmenstein_mode>  (86) 
expansion

>  <fragmenstein_error>  (86) 


$$$$
C2671-P126
     RDKit          3D

 57 60  0  0  0  0  0  0  0  0999 V2000
   -5.3795    2.0000    7.3136 O   0  0  0  0  0  0  0  0  0  0  0  0
   -5.8596    3.0076    6.9550 C   0  0  0  0  0  0  0  0  0  0  0  0
   -7.3411    3.5059    7.0259 N   0  0  0  0  0  0  0  0  0  0  0  0
   -8.4942    2.8521    7.4477 C   0  0  0  0  0  0  0  0  0  0  0  0
   -8.4723    1.6049    8.0426 C   0  0  0  0  0  0  0  0  0  0  0  0
   -9.6731    0.9822    8.3642 C   0  0  0  0  0  0  0  0  0  0  0  0
  -10.8881    1.6175    8.1069 C   0  0  0  0  0  0  0  0  0  0  0  0
  -12.0892    0.9801    8.3037 N   0  0  0  0  0  0  0  0  0  0  0  0
  -12.1254   -0.4718    8.3383 C   0  0  0  0  0  0  0  0  0  0  0  0
  -13.5454   -0.9137    8.6053 C   0  0  0  0  0  0  0  0  0  0  0  0
  -13.9342   -0.5222    9.9302 O   0  0  0  0  0  0  0  0  0  0  0  0
  -13.7371    0.8831   10.2068 C   0  0  0  0  0  0  0  0  0  0  0  0
  -12.7158    0.9934   11.3531 C   0  0  0  0  0  0  0  0  0  0  0  0
  -13.0148    2.2366   12.1909 C   0  0  0  0  0  0  0  0  0  0  0  0
  -11.8820    2.5702   13.0418 N   0  0  0  0  0  0  0  0  0  0  0  0
  -10.9796    3.4671   12.4614 C   0  0  0  0  0  0  0  0  0  0  0  0
  -10.9595    3.6578   11.1386 N   0  0  0  0  0  0  0  0  0  0  0  0
  -10.0985    4.5724   10.6611 C   0  0  0  0  0  0  0  0  0  0  0  0
   -9.2400    5.2947   11.4463 C   0  0  0  0  0  0  0  0  0  0  0  0
   -9.3177    5.0208   12.7851 C   0  0  0  0  0  0  0  0  0  0  0  0
  -10.1778    4.1263   13.3124 N   0  0  0  0  0  0  0  0  0  0  0  0
  -14.2586    1.9236   13.0264 C   0  0  0  0  0  0  0  0  0  0  0  0
  -15.4396    1.4478   12.1501 C   0  0  0  0  0  0  0  0  0  0  0  0
  -16.0576    0.1906   12.7407 C   0  0  0  0  0  0  0  0  0  0  0  0
  -16.3586    0.0701   13.9225 O   0  0  0  0  0  0  0  0  0  0  0  0
  -16.3149   -0.7874   11.8634 O   0  0  0  0  0  0  0  0  0  0  0  0
  -15.1292    1.4271   10.6333 C   0  0  0  0  0  0  0  0  0  0  0  0
  -13.1985    1.6921    8.9551 C   0  0  0  0  0  0  0  0  0  0  0  0
  -10.9142    2.8599    7.5830 N   0  0  0  0  0  0  0  0  0  0  0  0
   -9.7347    3.4378    7.2626 C   0  0  0  0  0  0  0  0  0  0  0  0
   -5.0514    4.1654    6.3533 C   0  0  0  0  0  0  0  0  0  0  0  0
   -5.8590    5.1568    5.8662 F   0  0  0  0  0  0  0  0  0  0  0  0
   -4.0185    4.8550    7.6216 Cl  0  0  0  0  0  0  0  0  0  0  0  0
   -7.3932    4.4681    6.6957 H   0  0  0  0  0  0  0  0  0  0  0  0
   -7.5403    1.0880    8.2478 H   0  0  0  0  0  0  0  0  0  0  0  0
   -9.6229    0.0000    8.8192 H   0  0  0  0  0  0  0  0  0  0  0  0
  -11.5002   -0.8548    9.1517 H   0  0  0  0  0  0  0  0  0  0  0  0
  -11.7762   -0.8862    7.3857 H   0  0  0  0  0  0  0  0  0  0  0  0
  -13.5533   -1.9957    8.5168 H   0  0  0  0  0  0  0  0  0  0  0  0
  -14.2657   -0.5184    7.8799 H   0  0  0  0  0  0  0  0  0  0  0  0
  -11.6922    1.0111   10.9632 H   0  0  0  0  0  0  0  0  0  0  0  0
  -12.7485    0.0936   11.9840 H   0  0  0  0  0  0  0  0  0  0  0  0
  -13.2730    3.0970   11.5589 H   0  0  0  0  0  0  0  0  0  0  0  0
  -12.1273    3.0270   13.9294 H   0  0  0  0  0  0  0  0  0  0  0  0
  -10.1343    4.7202    9.5902 H   0  0  0  0  0  0  0  0  0  0  0  0
   -8.5480    6.0167   11.0405 H   0  0  0  0  0  0  0  0  0  0  0  0
   -8.6722    5.5217   13.5020 H   0  0  0  0  0  0  0  0  0  0  0  0
  -14.0102    1.1839   13.7996 H   0  0  0  0  0  0  0  0  0  0  0  0
  -14.5609    2.8268   13.5726 H   0  0  0  0  0  0  0  0  0  0  0  0
  -16.2472    2.1875   12.2632 H   0  0  0  0  0  0  0  0  0  0  0  0
  -16.6884   -1.5582   12.3522 H   0  0  0  0  0  0  0  0  0  0  0  0
  -15.1994    2.4729   10.3004 H   0  0  0  0  0  0  0  0  0  0  0  0
  -15.9217    0.8980   10.0892 H   0  0  0  0  0  0  0  0  0  0  0  0
  -12.9240    2.7111    9.2522 H   0  0  0  0  0  0  0  0  0  0  0  0
  -14.0035    1.7901    8.2153 H   0  0  0  0  0  0  0  0  0  0  0  0
   -9.8353    4.4194    6.8100 H   0  0  0  0  0  0  0  0  0  0  0  0
   -4.4325    3.7943    5.5319 H   0  0  0  0  0  0  0  0  0  0  0  0
  1  2  2  0
  2  3  1  0
  3  4  1  0
  4  5  2  0
  5  6  1  0
  6  7  2  0
  7  8  1  0
  8  9  1  0
  9 10  1  0
 10 11  1  0
 11 12  1  0
 12 13  1  0
 13 14  1  0
 14 15  1  0
 15 16  1  0
 16 17  2  0
 17 18  1  0
 18 19  2  0
 19 20  1  0
 20 21  2  0
 14 22  1  0
 22 23  1  0
 23 24  1  0
 24 25  2  0
 24 26  1  0
 23 27  1  0
 12 28  1  0
  7 29  1  0
 29 30  2  0
  2 31  1  0
 31 32  1  0
 31 33  1  0
 30  4  1  0
 28  8  1  0
 27 12  1  0
 21 16  1  0
  3 34  1  0
  5 35  1  0
  6 36  1  0
  9 37  1  0
  9 38  1  0
 10 39  1  0
 10 40  1  0
 13 41  1  0
 13 42  1  0
 14 43  1  0
 15 44  1  0
 18 45  1  0
 19 46  1  0
 20 47  1  0
 22 48  1  0
 22 49  1  0
 23 50  1  0
 26 51  1  0
 27 52  1  0
 27 53  1  0
 28 54  1  0
 28 55  1  0
 30 56  1  0
 31 57  1  0
M  END
>  <Energy>  (87) 
25.381168936866633

>  <compound_id>  (87) 
2671

>  <target_id>  (87) 
1

>  <reference_id>  (87) 
126

>  <inspiration_ids>  (87) 
[100, 126]

>  <energy_score>  (87) 
-51.2462926503598

>  <distance_score>  (87) 
1.3739976573335428

>  <path>  (87) 
/opt/xchem-fragalysis-2/maxwin/BulkDock/SCRATCH/505734/C2671-P126/C2671-P126.minimised.mol

>  <scratch_subdir>  (87) 
/opt/xchem-fragalysis-2/maxwin/BulkDock/SCRATCH/505734/C2671-P126

>  <fragmenstein_runtime>  (87) 
4.792790412902832

>  <fragmenstein_outcome>  (87) 
too moved

>  <fragmenstein_mode>  (87) 
expansion

>  <fragmenstein_error>  (87) 


$$$$
C3149-P100
     RDKit          3D

 62 65  0  0  0  0  0  0  0  0999 V2000
  -12.9506    8.4774   10.2430 C   0  0  0  0  0  0  0  0  0  0  0  0
  -12.5384    7.5107    9.2114 C   0  0  0  0  0  0  0  0  0  0  0  0
  -12.7164    6.1616    9.0418 C   0  0  0  0  0  0  0  0  0  0  0  0
  -12.0275    5.8635    7.8441 C   0  0  0  0  0  0  0  0  0  0  0  0
  -11.8583    4.5338    7.1823 C   0  0  0  0  0  0  0  0  0  0  0  0
  -10.4145    4.2988    6.9636 N   0  0  0  0  0  0  0  0  0  0  0  0
  -10.0453    2.9334    6.0818 S   0  0  0  0  0  0  0  0  0  0  0  0
  -10.8985    2.9246    4.9190 O   0  0  0  0  0  0  0  0  0  0  0  0
   -8.6089    2.8720    5.9647 O   0  0  0  0  0  0  0  0  0  0  0  0
  -10.5556    1.7320    7.1377 N   0  0  0  0  0  0  0  0  0  0  0  0
   -9.8389    1.6766    8.4549 C   0  0  0  0  0  0  0  0  0  0  0  0
   -9.5199    0.2417    8.8980 C   0  0  0  0  0  0  0  0  0  0  0  0
  -10.7110   -0.6078    8.8396 N   0  0  0  0  0  0  0  0  0  0  0  0
  -11.2987   -0.6472    7.4826 C   0  0  0  0  0  0  0  0  0  0  0  0
  -12.8405   -0.5502    7.5785 C   0  0  0  0  0  0  0  0  0  0  0  0
  -13.3834    0.8513    7.8654 C   0  0  0  0  0  0  0  0  0  0  0  0
  -14.8029    0.8024    8.1720 O   0  0  0  0  0  0  0  0  0  0  0  0
  -15.3040    1.3133    9.3306 C   0  0  0  0  0  0  0  0  0  0  0  0
  -16.4373    1.7624    9.4324 O   0  0  0  0  0  0  0  0  0  0  0  0
  -14.4085    1.2647   10.4989 C   0  0  0  0  0  0  0  0  0  0  0  0
  -13.8753    0.0406   10.8857 C   0  0  0  0  0  0  0  0  0  0  0  0
  -12.8581    0.0150   11.8288 C   0  0  0  0  0  0  0  0  0  0  0  0
  -12.4370    1.1869   12.4395 C   0  0  0  0  0  0  0  0  0  0  0  0
  -13.0042    2.4093   12.0912 C   0  0  0  0  0  0  0  0  0  0  0  0
  -12.4746    3.6032   12.6043 N   0  0  0  0  0  0  0  0  0  0  0  0
  -11.2147    4.0797   12.2047 C   0  0  0  0  0  0  0  0  0  0  0  0
  -10.9138    4.1271   10.8974 N   0  0  0  0  0  0  0  0  0  0  0  0
   -9.7632    4.7358   10.5583 C   0  0  0  0  0  0  0  0  0  0  0  0
   -8.8987    5.2827   11.4698 C   0  0  0  0  0  0  0  0  0  0  0  0
   -9.2536    5.1210   12.7833 C   0  0  0  0  0  0  0  0  0  0  0  0
  -10.3905    4.5145   13.1765 N   0  0  0  0  0  0  0  0  0  0  0  0
  -14.0126    2.4451   11.1289 C   0  0  0  0  0  0  0  0  0  0  0  0
  -10.7056    0.3891    6.4995 C   0  0  0  0  0  0  0  0  0  0  0  0
  -11.4820    6.9687    7.3102 N   0  0  0  0  0  0  0  0  0  0  0  0
  -11.8067    8.0006    8.1755 O   0  0  0  0  0  0  0  0  0  0  0  0
  -12.0738    8.9303   10.7159 H   0  0  0  0  0  0  0  0  0  0  0  0
  -13.5442    7.9904   11.0230 H   0  0  0  0  0  0  0  0  0  0  0  0
  -13.5566    9.2747    9.8020 H   0  0  0  0  0  0  0  0  0  0  0  0
  -13.2356    5.4828    9.7021 H   0  0  0  0  0  0  0  0  0  0  0  0
  -12.3989    4.5529    6.2302 H   0  0  0  0  0  0  0  0  0  0  0  0
  -12.2761    3.7479    7.8180 H   0  0  0  0  0  0  0  0  0  0  0  0
  -10.0029    5.1136    6.5019 H   0  0  0  0  0  0  0  0  0  0  0  0
  -10.4997    2.1393    9.1938 H   0  0  0  0  0  0  0  0  0  0  0  0
   -8.9086    2.2524    8.4344 H   0  0  0  0  0  0  0  0  0  0  0  0
   -9.1496    0.2630    9.9277 H   0  0  0  0  0  0  0  0  0  0  0  0
   -8.7186   -0.1862    8.2836 H   0  0  0  0  0  0  0  0  0  0  0  0
  -10.4946   -1.5708    9.1294 H   0  0  0  0  0  0  0  0  0  0  0  0
  -11.0754   -1.6378    7.0636 H   0  0  0  0  0  0  0  0  0  0  0  0
  -13.2780   -0.8958    6.6321 H   0  0  0  0  0  0  0  0  0  0  0  0
  -13.2094   -1.2625    8.3251 H   0  0  0  0  0  0  0  0  0  0  0  0
  -13.3032    1.4650    6.9617 H   0  0  0  0  0  0  0  0  0  0  0  0
  -12.8149    1.3606    8.6452 H   0  0  0  0  0  0  0  0  0  0  0  0
  -14.1949   -0.8679   10.3870 H   0  0  0  0  0  0  0  0  0  0  0  0
  -12.3379   -0.9034   12.0707 H   0  0  0  0  0  0  0  0  0  0  0  0
  -11.6320    1.1499   13.1673 H   0  0  0  0  0  0  0  0  0  0  0  0
  -12.4131    3.5949   13.6296 H   0  0  0  0  0  0  0  0  0  0  0  0
   -9.5518    4.7836    9.4948 H   0  0  0  0  0  0  0  0  0  0  0  0
   -7.9862    5.7789   11.1723 H   0  0  0  0  0  0  0  0  0  0  0  0
   -8.6178    5.4880   13.5853 H   0  0  0  0  0  0  0  0  0  0  0  0
  -14.4284    3.3979   10.8133 H   0  0  0  0  0  0  0  0  0  0  0  0
  -11.3542    0.4615    5.6193 H   0  0  0  0  0  0  0  0  0  0  0  0
   -9.7202    0.0492    6.1551 H   0  0  0  0  0  0  0  0  0  0  0  0
  1  2  1  0
  2  3  2  0
  3  4  1  0
  4  5  1  0
  5  6  1  0
  6  7  1  0
  7  8  2  0
  7  9  2  0
  7 10  1  0
 10 11  1  0
 11 12  1  0
 12 13  1  0
 13 14  1  0
 14 15  1  0
 15 16  1  0
 16 17  1  0
 17 18  1  0
 18 19  2  0
 18 20  1  0
 20 21  2  0
 21 22  1  0
 22 23  2  0
 23 24  1  0
 24 25  1  0
 25 26  1  0
 26 27  2  0
 27 28  1  0
 28 29  2  0
 29 30  1  0
 30 31  2  0
 24 32  2  0
 14 33  1  0
  4 34  2  0
 34 35  1  0
 35  2  1  0
 33 10  1  0
 32 20  1  0
 31 26  1  0
  1 36  1  0
  1 37  1  0
  1 38  1  0
  3 39  1  0
  5 40  1  0
  5 41  1  0
  6 42  1  0
 11 43  1  0
 11 44  1  0
 12 45  1  0
 12 46  1  0
 13 47  1  0
 14 48  1  0
 15 49  1  0
 15 50  1  0
 16 51  1  0
 16 52  1  0
 21 53  1  0
 22 54  1  0
 23 55  1  0
 25 56  1  0
 28 57  1  0
 29 58  1  0
 30 59  1  0
 32 60  1  0
 33 61  1  0
 33 62  1  0
M  END
>  <Energy>  (88) 
-153.85452494690205

>  <compound_id>  (88) 
3149

>  <target_id>  (88) 
1

>  <reference_id>  (88) 
100

>  <inspiration_ids>  (88) 
[100, 127]

>  <energy_score>  (88) 
-69.10871368626265

>  <distance_score>  (88) 
2.417337563585101

>  <path>  (88) 
/opt/xchem-fragalysis-2/maxwin/BulkDock/SCRATCH/505734/C3149-P100/C3149-P100.minimised.mol

>  <scratch_subdir>  (88) 
/opt/xchem-fragalysis-2/maxwin/BulkDock/SCRATCH/505734/C3149-P100

>  <fragmenstein_runtime>  (88) 
6.436717510223389

>  <fragmenstein_outcome>  (88) 
too moved

>  <fragmenstein_mode>  (88) 
expansion

>  <fragmenstein_error>  (88) 


$$$$
C3149-P127
     RDKit          3D

 62 65  0  0  0  0  0  0  0  0999 V2000
  -13.7232    9.7422    8.6917 C   0  0  0  0  0  0  0  0  0  0  0  0
  -13.5522    8.7508    7.6151 C   0  0  0  0  0  0  0  0  0  0  0  0
  -14.3990    7.8987    6.9505 C   0  0  0  0  0  0  0  0  0  0  0  0
  -13.5603    7.2131    6.0411 C   0  0  0  0  0  0  0  0  0  0  0  0
  -13.9178    6.1305    5.0779 C   0  0  0  0  0  0  0  0  0  0  0  0
  -13.4652    4.8487    5.6609 N   0  0  0  0  0  0  0  0  0  0  0  0
  -13.5950    3.5533    4.6110 S   0  0  0  0  0  0  0  0  0  0  0  0
  -14.9489    3.5386    4.0985 O   0  0  0  0  0  0  0  0  0  0  0  0
  -12.4469    3.6218    3.7445 O   0  0  0  0  0  0  0  0  0  0  0  0
  -13.4067    2.2983    5.7070 N   0  0  0  0  0  0  0  0  0  0  0  0
  -12.0542    2.1240    6.3153 C   0  0  0  0  0  0  0  0  0  0  0  0
  -11.9839    0.8267    7.1417 C   0  0  0  0  0  0  0  0  0  0  0  0
  -13.0516    0.7457    8.1570 N   0  0  0  0  0  0  0  0  0  0  0  0
  -14.3653    0.8157    7.4822 C   0  0  0  0  0  0  0  0  0  0  0  0
  -15.5251    0.6137    8.4850 C   0  0  0  0  0  0  0  0  0  0  0  0
  -15.8193    1.7954    9.4133 C   0  0  0  0  0  0  0  0  0  0  0  0
  -16.5698    1.3550   10.5788 O   0  0  0  0  0  0  0  0  0  0  0  0
  -16.0618    1.3698   11.8439 C   0  0  0  0  0  0  0  0  0  0  0  0
  -16.7561    1.3161   12.8503 O   0  0  0  0  0  0  0  0  0  0  0  0
  -14.5981    1.4595   11.9540 C   0  0  0  0  0  0  0  0  0  0  0  0
  -13.8162    0.4473   11.4016 C   0  0  0  0  0  0  0  0  0  0  0  0
  -12.4501    0.6368   11.2715 C   0  0  0  0  0  0  0  0  0  0  0  0
  -11.8846    1.8377   11.6943 C   0  0  0  0  0  0  0  0  0  0  0  0
  -12.6414    2.8110   12.3616 C   0  0  0  0  0  0  0  0  0  0  0  0
  -12.0666    3.9845   12.8754 N   0  0  0  0  0  0  0  0  0  0  0  0
  -10.8350    4.5390   12.5221 C   0  0  0  0  0  0  0  0  0  0  0  0
  -10.5307    4.6899   11.2208 N   0  0  0  0  0  0  0  0  0  0  0  0
   -9.3849    5.3320   10.9329 C   0  0  0  0  0  0  0  0  0  0  0  0
   -8.5227    5.8088   11.8885 C   0  0  0  0  0  0  0  0  0  0  0  0
   -8.8923    5.5644   13.1866 C   0  0  0  0  0  0  0  0  0  0  0  0
  -10.0331    4.9345   13.5271 N   0  0  0  0  0  0  0  0  0  0  0  0
  -14.0157    2.6046   12.5023 C   0  0  0  0  0  0  0  0  0  0  0  0
  -14.5152    2.1307    6.6851 C   0  0  0  0  0  0  0  0  0  0  0  0
  -12.2868    7.6231    6.1492 N   0  0  0  0  0  0  0  0  0  0  0  0
  -12.2891    8.5932    7.1358 O   0  0  0  0  0  0  0  0  0  0  0  0
  -14.7741    9.8267    8.9846 H   0  0  0  0  0  0  0  0  0  0  0  0
  -13.3823   10.7287    8.3638 H   0  0  0  0  0  0  0  0  0  0  0  0
  -13.1462    9.4527    9.5752 H   0  0  0  0  0  0  0  0  0  0  0  0
  -15.4605    7.7766    7.1079 H   0  0  0  0  0  0  0  0  0  0  0  0
  -13.4198    6.3159    4.1193 H   0  0  0  0  0  0  0  0  0  0  0  0
  -15.0013    6.1096    4.9211 H   0  0  0  0  0  0  0  0  0  0  0  0
  -12.4812    4.9478    5.9250 H   0  0  0  0  0  0  0  0  0  0  0  0
  -11.8294    2.9790    6.9633 H   0  0  0  0  0  0  0  0  0  0  0  0
  -11.2962    2.0742    5.5269 H   0  0  0  0  0  0  0  0  0  0  0  0
  -11.0139    0.7704    7.6477 H   0  0  0  0  0  0  0  0  0  0  0  0
  -12.0458   -0.0454    6.4792 H   0  0  0  0  0  0  0  0  0  0  0  0
  -12.9438    1.5406    8.7874 H   0  0  0  0  0  0  0  0  0  0  0  0
  -14.4176   -0.0265    6.7778 H   0  0  0  0  0  0  0  0  0  0  0  0
  -16.4422    0.4009    7.9186 H   0  0  0  0  0  0  0  0  0  0  0  0
  -15.3510   -0.2979    9.0659 H   0  0  0  0  0  0  0  0  0  0  0  0
  -16.4669    2.5093    8.8913 H   0  0  0  0  0  0  0  0  0  0  0  0
  -14.9211    2.3524    9.6897 H   0  0  0  0  0  0  0  0  0  0  0  0
  -14.2775   -0.4463   10.9949 H   0  0  0  0  0  0  0  0  0  0  0  0
  -11.8351   -0.1144   10.7789 H   0  0  0  0  0  0  0  0  0  0  0  0
  -10.8247    1.9986   11.5111 H   0  0  0  0  0  0  0  0  0  0  0  0
  -12.1755    4.0924   13.8893 H   0  0  0  0  0  0  0  0  0  0  0  0
   -9.1736    5.4529    9.8748 H   0  0  0  0  0  0  0  0  0  0  0  0
   -7.6046    6.3190   11.6357 H   0  0  0  0  0  0  0  0  0  0  0  0
   -8.2660    5.8762   14.0190 H   0  0  0  0  0  0  0  0  0  0  0  0
  -14.6366    3.3707   12.9600 H   0  0  0  0  0  0  0  0  0  0  0  0
  -14.5211    2.9924    7.3625 H   0  0  0  0  0  0  0  0  0  0  0  0
  -15.4738    2.1028    6.1550 H   0  0  0  0  0  0  0  0  0  0  0  0
  1  2  1  0
  2  3  2  0
  3  4  1  0
  4  5  1  0
  5  6  1  0
  6  7  1  0
  7  8  2  0
  7  9  2  0
  7 10  1  0
 10 11  1  0
 11 12  1  0
 12 13  1  0
 13 14  1  0
 14 15  1  0
 15 16  1  0
 16 17  1  0
 17 18  1  0
 18 19  2  0
 18 20  1  0
 20 21  2  0
 21 22  1  0
 22 23  2  0
 23 24  1  0
 24 25  1  0
 25 26  1  0
 26 27  2  0
 27 28  1  0
 28 29  2  0
 29 30  1  0
 30 31  2  0
 24 32  2  0
 14 33  1  0
  4 34  2  0
 34 35  1  0
 35  2  1  0
 33 10  1  0
 32 20  1  0
 31 26  1  0
  1 36  1  0
  1 37  1  0
  1 38  1  0
  3 39  1  0
  5 40  1  0
  5 41  1  0
  6 42  1  0
 11 43  1  0
 11 44  1  0
 12 45  1  0
 12 46  1  0
 13 47  1  0
 14 48  1  0
 15 49  1  0
 15 50  1  0
 16 51  1  0
 16 52  1  0
 21 53  1  0
 22 54  1  0
 23 55  1  0
 25 56  1  0
 28 57  1  0
 29 58  1  0
 30 59  1  0
 32 60  1  0
 33 61  1  0
 33 62  1  0
M  END
>  <Energy>  (89) 
-150.76445346771209

>  <compound_id>  (89) 
3149

>  <target_id>  (89) 
1

>  <reference_id>  (89) 
127

>  <inspiration_ids>  (89) 
[100, 127]

>  <energy_score>  (89) 
-77.04923583313898

>  <distance_score>  (89) 
2.9215338532577135

>  <path>  (89) 
/opt/xchem-fragalysis-2/maxwin/BulkDock/SCRATCH/505734/C3149-P127/C3149-P127.minimised.mol

>  <scratch_subdir>  (89) 
/opt/xchem-fragalysis-2/maxwin/BulkDock/SCRATCH/505734/C3149-P127

>  <fragmenstein_runtime>  (89) 
11.953100442886353

>  <fragmenstein_outcome>  (89) 
too moved

>  <fragmenstein_mode>  (89) 
expansion

>  <fragmenstein_error>  (89) 


$$$$
C726-P100
     RDKit          3D

 26 28  0  0  0  0  0  0  0  0999 V2000
  -14.1409    1.1044   13.6831 C   0  0  0  0  0  0  0  0  0  0  0  0
  -13.0294    1.4874   12.8000 C   0  0  0  0  0  0  0  0  0  0  0  0
  -12.0164    2.1899   13.2900 N   0  0  0  0  0  0  0  0  0  0  0  0
  -11.1691    2.7272   11.9892 S   0  0  0  0  0  0  0  0  0  0  0  0
  -12.0276    1.7152   10.8561 C   0  0  0  0  0  0  0  0  0  0  0  0
  -11.6842    1.5837    9.5464 N   0  0  0  0  0  0  0  0  0  0  0  0
  -12.4771    0.6858    8.6913 C   0  0  0  0  0  0  0  0  0  0  0  0
  -11.6174    0.2192    7.4910 C   0  0  0  0  0  0  0  0  0  0  0  0
  -10.9946    1.2887    6.7460 O   0  0  0  0  0  0  0  0  0  0  0  0
  -10.4893    2.2380    7.5886 C   0  0  0  0  0  0  0  0  0  0  0  0
  -10.7570    2.3627    8.9019 C   0  0  0  0  0  0  0  0  0  0  0  0
  -10.0091    3.4292    9.3957 N   0  0  0  0  0  0  0  0  0  0  0  0
   -9.2295    4.0199    8.3317 C   0  0  0  0  0  0  0  0  0  0  0  0
   -9.6483    3.2461    7.1682 N   0  0  0  0  0  0  0  0  0  0  0  0
  -13.0465    1.1358   11.4590 N   0  0  0  0  0  0  0  0  0  0  0  0
  -14.7412    0.3073   13.2346 H   0  0  0  0  0  0  0  0  0  0  0  0
  -14.7994    1.9610   13.8583 H   0  0  0  0  0  0  0  0  0  0  0  0
  -13.7732    0.7522   14.6514 H   0  0  0  0  0  0  0  0  0  0  0  0
  -13.3532    1.2333    8.3221 H   0  0  0  0  0  0  0  0  0  0  0  0
  -12.8259   -0.1982    9.2387 H   0  0  0  0  0  0  0  0  0  0  0  0
  -10.8228   -0.4552    7.8366 H   0  0  0  0  0  0  0  0  0  0  0  0
  -12.2418   -0.3467    6.7914 H   0  0  0  0  0  0  0  0  0  0  0  0
  -10.6033    4.0938    9.8765 H   0  0  0  0  0  0  0  0  0  0  0  0
   -8.1574    3.9033    8.5141 H   0  0  0  0  0  0  0  0  0  0  0  0
   -9.4693    5.0792    8.1968 H   0  0  0  0  0  0  0  0  0  0  0  0
   -8.8967    2.8748    6.6001 H   0  0  0  0  0  0  0  0  0  0  0  0
  1  2  1  0
  2  3  2  0
  3  4  1  0
  4  5  1  0
  5  6  1  0
  6  7  1  0
  7  8  1  0
  8  9  1  0
  9 10  1  0
 10 11  2  0
 11 12  1  0
 12 13  1  0
 13 14  1  0
  5 15  2  0
 15  2  1  0
 11  6  1  0
 14 10  1  0
  1 16  1  0
  1 17  1  0
  1 18  1  0
  7 19  1  0
  7 20  1  0
  8 21  1  0
  8 22  1  0
 12 23  1  0
 13 24  1  0
 13 25  1  0
 14 26  1  0
M  END
>  <Energy>  (90) 
-20.805130783044937

>  <compound_id>  (90) 
726

>  <target_id>  (90) 
1

>  <reference_id>  (90) 
100

>  <inspiration_ids>  (90) 
[100, 139]

>  <energy_score>  (90) 
-92.51850313546275

>  <distance_score>  (90) 
2.5114714248182515

>  <path>  (90) 
/opt/xchem-fragalysis-2/maxwin/BulkDock/SCRATCH/505734/C726-P100/C726-P100.minimised.mol

>  <scratch_subdir>  (90) 
/opt/xchem-fragalysis-2/maxwin/BulkDock/SCRATCH/505734/C726-P100

>  <fragmenstein_runtime>  (90) 
2.646728038787842

>  <fragmenstein_outcome>  (90) 
too moved

>  <fragmenstein_mode>  (90) 
expansion

>  <fragmenstein_error>  (90) 


$$$$
C726-P139
     RDKit          3D

 26 28  0  0  0  0  0  0  0  0999 V2000
  -14.1556    3.4282   13.2840 C   0  0  0  0  0  0  0  0  0  0  0  0
  -13.4224    2.3652   12.5885 C   0  0  0  0  0  0  0  0  0  0  0  0
  -13.2156    1.1951   13.1853 N   0  0  0  0  0  0  0  0  0  0  0  0
  -12.4964    0.2356   12.0415 S   0  0  0  0  0  0  0  0  0  0  0  0
  -12.4421    1.4488   10.8491 C   0  0  0  0  0  0  0  0  0  0  0  0
  -11.7263    1.3185    9.7050 N   0  0  0  0  0  0  0  0  0  0  0  0
  -12.4058    0.7085    8.5499 C   0  0  0  0  0  0  0  0  0  0  0  0
  -11.4284    0.6536    7.3524 C   0  0  0  0  0  0  0  0  0  0  0  0
  -10.8491    1.9336    7.0111 O   0  0  0  0  0  0  0  0  0  0  0  0
  -10.4451    2.5986    8.1403 C   0  0  0  0  0  0  0  0  0  0  0  0
  -10.8291    2.3128    9.3995 C   0  0  0  0  0  0  0  0  0  0  0  0
  -10.3593    3.3129   10.2493 N   0  0  0  0  0  0  0  0  0  0  0  0
   -9.8263    4.3977    9.4487 C   0  0  0  0  0  0  0  0  0  0  0  0
   -9.7637    3.7996    8.1121 N   0  0  0  0  0  0  0  0  0  0  0  0
  -12.9991    2.5616   11.2862 N   0  0  0  0  0  0  0  0  0  0  0  0
  -15.1120    3.6145   12.7849 H   0  0  0  0  0  0  0  0  0  0  0  0
  -13.5850    4.3610   13.2725 H   0  0  0  0  0  0  0  0  0  0  0  0
  -14.3706    3.1588   14.3200 H   0  0  0  0  0  0  0  0  0  0  0  0
  -13.2766    1.3181    8.2746 H   0  0  0  0  0  0  0  0  0  0  0  0
  -12.7512   -0.3041    8.7892 H   0  0  0  0  0  0  0  0  0  0  0  0
  -10.6081   -0.0462    7.5596 H   0  0  0  0  0  0  0  0  0  0  0  0
  -11.9552    0.2868    6.4652 H   0  0  0  0  0  0  0  0  0  0  0  0
  -11.0791    3.5854   10.9128 H   0  0  0  0  0  0  0  0  0  0  0  0
   -8.8366    4.7115    9.7883 H   0  0  0  0  0  0  0  0  0  0  0  0
  -10.5067    5.2564    9.4517 H   0  0  0  0  0  0  0  0  0  0  0  0
  -10.0673    4.3868    7.3474 H   0  0  0  0  0  0  0  0  0  0  0  0
  1  2  1  0
  2  3  2  0
  3  4  1  0
  4  5  1  0
  5  6  1  0
  6  7  1  0
  7  8  1  0
  8  9  1  0
  9 10  1  0
 10 11  2  0
 11 12  1  0
 12 13  1  0
 13 14  1  0
  5 15  2  0
 15  2  1  0
 11  6  1  0
 14 10  1  0
  1 16  1  0
  1 17  1  0
  1 18  1  0
  7 19  1  0
  7 20  1  0
  8 21  1  0
  8 22  1  0
 12 23  1  0
 13 24  1  0
 13 25  1  0
 14 26  1  0
M  END
>  <Energy>  (91) 
-13.465340746982919

>  <compound_id>  (91) 
726

>  <target_id>  (91) 
1

>  <reference_id>  (91) 
139

>  <inspiration_ids>  (91) 
[100, 139]

>  <energy_score>  (91) 
-85.17871309940065

>  <distance_score>  (91) 
2.4246156052474985

>  <path>  (91) 
/opt/xchem-fragalysis-2/maxwin/BulkDock/SCRATCH/505734/C726-P139/C726-P139.minimised.mol

>  <scratch_subdir>  (91) 
/opt/xchem-fragalysis-2/maxwin/BulkDock/SCRATCH/505734/C726-P139

>  <fragmenstein_runtime>  (91) 
2.8051486015319824

>  <fragmenstein_outcome>  (91) 
too moved

>  <fragmenstein_mode>  (91) 
expansion

>  <fragmenstein_error>  (91) 


$$$$
C409-P101
     RDKit          3D

 44 47  0  0  0  0  0  0  0  0999 V2000
  -11.4833  -25.6576   34.4613 N   0  0  0  0  0  0  0  0  0  0  0  0
  -12.2377  -24.9228   33.9553 C   0  0  0  0  0  0  0  0  0  0  0  0
  -13.0395  -23.8727   33.3305 C   0  0  0  0  0  0  0  0  0  0  0  0
  -14.4844  -23.9911   33.2036 N   0  0  0  0  0  0  0  0  0  0  0  0
  -14.7937  -22.6631   32.7358 C   0  0  0  0  0  0  0  0  0  0  0  0
  -13.7090  -22.2344   31.8398 N   0  0  0  0  0  0  0  0  0  0  0  0
  -12.5427  -23.1955   32.0036 C   0  0  0  0  0  0  0  0  0  0  0  0
  -12.2937  -23.6421   30.5021 C   0  0  0  0  0  0  0  0  0  0  0  0
  -11.0089  -24.3633   30.0837 C   0  0  0  0  0  0  0  0  0  0  0  0
  -11.1092  -25.3641   29.0330 N   0  0  0  0  0  0  0  0  0  0  0  0
  -10.7372  -26.6629   29.0442 C   0  0  0  0  0  0  0  0  0  0  0  0
  -11.2887  -27.3188   28.0462 N   0  0  0  0  0  0  0  0  0  0  0  0
  -11.8651  -26.3739   27.2727 C   0  0  0  0  0  0  0  0  0  0  0  0
  -12.6802  -26.5395   26.1561 C   0  0  0  0  0  0  0  0  0  0  0  0
  -13.1278  -25.3937   25.5288 C   0  0  0  0  0  0  0  0  0  0  0  0
  -12.6901  -24.1439   25.9665 C   0  0  0  0  0  0  0  0  0  0  0  0
  -11.9431  -23.9575   27.1245 C   0  0  0  0  0  0  0  0  0  0  0  0
  -11.6098  -25.1168   27.7840 C   0  0  0  0  0  0  0  0  0  0  0  0
  -10.0715  -24.6688   31.2301 C   0  0  0  0  0  0  0  0  0  0  0  0
  -10.0855  -23.6887   32.3981 C   0  0  0  0  0  0  0  0  0  0  0  0
  -11.2053  -22.6090   32.4444 C   0  0  0  0  0  0  0  0  0  0  0  0
  -10.9369  -21.2352   31.8707 C   0  0  0  0  0  0  0  0  0  0  0  0
  -10.9483  -21.1373   30.4675 O   0  0  0  0  0  0  0  0  0  0  0  0
  -12.9639  -23.1147   34.1304 H   0  0  0  0  0  0  0  0  0  0  0  0
  -14.6380  -24.6897   32.4708 H   0  0  0  0  0  0  0  0  0  0  0  0
  -14.8481  -21.9639   33.5800 H   0  0  0  0  0  0  0  0  0  0  0  0
  -15.7737  -22.6220   32.2542 H   0  0  0  0  0  0  0  0  0  0  0  0
  -14.1336  -22.4167   30.9289 H   0  0  0  0  0  0  0  0  0  0  0  0
  -12.2371  -22.7093   29.9363 H   0  0  0  0  0  0  0  0  0  0  0  0
  -13.1349  -23.9591   29.8940 H   0  0  0  0  0  0  0  0  0  0  0  0
  -10.5599  -23.6224   29.4476 H   0  0  0  0  0  0  0  0  0  0  0  0
  -10.1566  -27.1046   29.8433 H   0  0  0  0  0  0  0  0  0  0  0  0
  -12.9805  -27.5243   25.8252 H   0  0  0  0  0  0  0  0  0  0  0  0
  -13.7916  -25.4800   24.6760 H   0  0  0  0  0  0  0  0  0  0  0  0
  -12.9869  -23.2762   25.3822 H   0  0  0  0  0  0  0  0  0  0  0  0
  -11.6943  -22.9673   27.4859 H   0  0  0  0  0  0  0  0  0  0  0  0
  -10.3081  -25.6347   31.6320 H   0  0  0  0  0  0  0  0  0  0  0  0
   -9.0583  -24.8325   30.8622 H   0  0  0  0  0  0  0  0  0  0  0  0
  -10.1543  -24.3202   33.2708 H   0  0  0  0  0  0  0  0  0  0  0  0
   -9.0990  -23.3145   32.6680 H   0  0  0  0  0  0  0  0  0  0  0  0
  -11.3144  -22.3765   33.5011 H   0  0  0  0  0  0  0  0  0  0  0  0
  -11.6728  -20.5708   32.3142 H   0  0  0  0  0  0  0  0  0  0  0  0
   -9.9938  -20.8258   32.2018 H   0  0  0  0  0  0  0  0  0  0  0  0
  -11.8517  -20.9068   30.2025 H   0  0  0  0  0  0  0  0  0  0  0  0
  1  2  3  0
  2  3  1  0
  3  4  1  0
  4  5  1  0
  5  6  1  0
  6  7  1  0
  7  8  1  0
  8  9  1  0
  9 10  1  0
 10 11  1  0
 11 12  2  0
 12 13  1  0
 13 14  2  0
 14 15  1  0
 15 16  2  0
 16 17  1  0
 17 18  2  0
  9 19  1  0
 19 20  1  0
 20 21  1  0
 21 22  1  0
 22 23  1  0
  7  3  1  0
 18 10  1  0
 21  7  1  0
 18 13  1  0
  3 24  1  0
  4 25  1  0
  5 26  1  0
  5 27  1  0
  6 28  1  0
  8 29  1  0
  8 30  1  0
  9 31  1  0
 11 32  1  0
 14 33  1  0
 15 34  1  0
 16 35  1  0
 17 36  1  0
 19 37  1  0
 19 38  1  0
 20 39  1  0
 20 40  1  0
 21 41  1  0
 22 42  1  0
 22 43  1  0
 23 44  1  0
M  END
>  <Energy>  (92) 
126.61325956370386

>  <compound_id>  (92) 
409

>  <target_id>  (92) 
1

>  <reference_id>  (92) 
101

>  <inspiration_ids>  (92) 
[101, 16]

>  <energy_score>  (92) 
22.71229591578731

>  <distance_score>  (92) 
2.581764106221469

>  <path>  (92) 
/opt/xchem-fragalysis-2/maxwin/BulkDock/SCRATCH/505734/C409-P101/C409-P101.minimised.mol

>  <scratch_subdir>  (92) 
/opt/xchem-fragalysis-2/maxwin/BulkDock/SCRATCH/505734/C409-P101

>  <fragmenstein_runtime>  (92) 
4.925761699676514

>  <fragmenstein_outcome>  (92) 
too moved

>  <fragmenstein_mode>  (92) 
expansion

>  <fragmenstein_error>  (92) 


$$$$
C409-P16
     RDKit          3D

 44 47  0  0  0  0  0  0  0  0999 V2000
  -12.5018  -20.5351   34.9149 N   0  0  0  0  0  0  0  0  0  0  0  0
  -12.5960  -21.1480   33.9344 C   0  0  0  0  0  0  0  0  0  0  0  0
  -13.0516  -21.5019   32.6007 C   0  0  0  0  0  0  0  0  0  0  0  0
  -14.4790  -21.0763   32.6890 N   0  0  0  0  0  0  0  0  0  0  0  0
  -15.1801  -21.7907   31.7020 C   0  0  0  0  0  0  0  0  0  0  0  0
  -14.4458  -23.0035   31.6100 N   0  0  0  0  0  0  0  0  0  0  0  0
  -13.0053  -22.8122   31.8077 C   0  0  0  0  0  0  0  0  0  0  0  0
  -12.5446  -22.7071   30.2381 C   0  0  0  0  0  0  0  0  0  0  0  0
  -13.0137  -24.0059   29.4342 C   0  0  0  0  0  0  0  0  0  0  0  0
  -12.7973  -24.3154   27.9852 N   0  0  0  0  0  0  0  0  0  0  0  0
  -12.7095  -23.3856   26.9818 C   0  0  0  0  0  0  0  0  0  0  0  0
  -11.5088  -22.8936   27.0427 N   0  0  0  0  0  0  0  0  0  0  0  0
  -10.8773  -23.9456   27.6051 C   0  0  0  0  0  0  0  0  0  0  0  0
   -9.7426  -23.9643   28.3484 C   0  0  0  0  0  0  0  0  0  0  0  0
   -9.5088  -25.0914   29.1244 C   0  0  0  0  0  0  0  0  0  0  0  0
  -10.2226  -26.2536   28.9318 C   0  0  0  0  0  0  0  0  0  0  0  0
  -11.2612  -26.3405   28.0054 C   0  0  0  0  0  0  0  0  0  0  0  0
  -11.6816  -25.0772   27.6174 C   0  0  0  0  0  0  0  0  0  0  0  0
  -12.5488  -25.1635   30.3107 C   0  0  0  0  0  0  0  0  0  0  0  0
  -11.5950  -24.9137   31.4093 C   0  0  0  0  0  0  0  0  0  0  0  0
  -12.3674  -24.0813   32.4421 C   0  0  0  0  0  0  0  0  0  0  0  0
  -11.3944  -23.9527   33.5341 C   0  0  0  0  0  0  0  0  0  0  0  0
  -10.1776  -23.4543   33.0008 O   0  0  0  0  0  0  0  0  0  0  0  0
  -12.4173  -20.8754   31.9826 H   0  0  0  0  0  0  0  0  0  0  0  0
  -14.8476  -21.3880   33.5918 H   0  0  0  0  0  0  0  0  0  0  0  0
  -15.1945  -21.2235   30.7781 H   0  0  0  0  0  0  0  0  0  0  0  0
  -16.2222  -21.9492   31.9982 H   0  0  0  0  0  0  0  0  0  0  0  0
  -14.8612  -23.6676   32.2726 H   0  0  0  0  0  0  0  0  0  0  0  0
  -12.9230  -21.8057   29.7697 H   0  0  0  0  0  0  0  0  0  0  0  0
  -11.4610  -22.5811   30.1969 H   0  0  0  0  0  0  0  0  0  0  0  0
  -14.1052  -23.9651   29.4197 H   0  0  0  0  0  0  0  0  0  0  0  0
  -13.4142  -23.2347   26.1773 H   0  0  0  0  0  0  0  0  0  0  0  0
   -9.1184  -23.0907   28.3403 H   0  0  0  0  0  0  0  0  0  0  0  0
   -8.7968  -25.0539   29.9322 H   0  0  0  0  0  0  0  0  0  0  0  0
  -10.0578  -27.0343   29.6658 H   0  0  0  0  0  0  0  0  0  0  0  0
  -11.9308  -27.1948   28.0069 H   0  0  0  0  0  0  0  0  0  0  0  0
  -13.3530  -25.2757   30.9661 H   0  0  0  0  0  0  0  0  0  0  0  0
  -12.4746  -26.1533   29.8831 H   0  0  0  0  0  0  0  0  0  0  0  0
  -11.2547  -25.8593   31.8501 H   0  0  0  0  0  0  0  0  0  0  0  0
  -10.7071  -24.4008   31.0594 H   0  0  0  0  0  0  0  0  0  0  0  0
  -13.1630  -24.6634   32.9089 H   0  0  0  0  0  0  0  0  0  0  0  0
  -11.8267  -23.3489   34.3258 H   0  0  0  0  0  0  0  0  0  0  0  0
  -11.1793  -24.9364   33.9741 H   0  0  0  0  0  0  0  0  0  0  0  0
  -10.3665  -22.6859   32.4447 H   0  0  0  0  0  0  0  0  0  0  0  0
  1  2  3  0
  2  3  1  0
  3  4  1  0
  4  5  1  0
  5  6  1  0
  6  7  1  0
  7  8  1  0
  8  9  1  0
  9 10  1  0
 10 11  1  0
 11 12  2  0
 12 13  1  0
 13 14  2  0
 14 15  1  0
 15 16  2  0
 16 17  1  0
 17 18  2  0
  9 19  1  0
 19 20  1  0
 20 21  1  0
 21 22  1  0
 22 23  1  0
  7  3  1  0
 18 10  1  0
 21  7  1  0
 18 13  1  0
  3 24  1  0
  4 25  1  0
  5 26  1  0
  5 27  1  0
  6 28  1  0
  8 29  1  0
  8 30  1  0
  9 31  1  0
 11 32  1  0
 14 33  1  0
 15 34  1  0
 16 35  1  0
 17 36  1  0
 19 37  1  0
 19 38  1  0
 20 39  1  0
 20 40  1  0
 21 41  1  0
 22 42  1  0
 22 43  1  0
 23 44  1  0
M  END
>  <Energy>  (93) 
215.34013567590438

>  <compound_id>  (93) 
409

>  <target_id>  (93) 
1

>  <reference_id>  (93) 
16

>  <inspiration_ids>  (93) 
[101, 16]

>  <energy_score>  (93) 
115.26415504424597

>  <distance_score>  (93) 
2.324550447502469

>  <path>  (93) 
/opt/xchem-fragalysis-2/maxwin/BulkDock/SCRATCH/505734/C409-P16/C409-P16.minimised.mol

>  <scratch_subdir>  (93) 
/opt/xchem-fragalysis-2/maxwin/BulkDock/SCRATCH/505734/C409-P16

>  <fragmenstein_runtime>  (93) 
5.750101089477539

>  <fragmenstein_outcome>  (93) 
too moved

>  <fragmenstein_mode>  (93) 
expansion

>  <fragmenstein_error>  (93) 


$$$$
C736-P101
     RDKit          3D

 23 23  0  0  0  0  0  0  0  0999 V2000
  -10.5731  -25.3449   33.2079 N   0  0  0  0  0  0  0  0  0  0  0  0
   -9.8771  -24.8683   32.0627 C   0  0  0  0  0  0  0  0  0  0  0  0
   -8.5538  -24.8227   32.4935 O   0  0  0  0  0  0  0  0  0  0  0  0
  -10.3279  -23.5742   32.0498 O   0  0  0  0  0  0  0  0  0  0  0  0
   -9.8021  -25.6030   30.6729 C   0  0  0  0  0  0  0  0  0  0  0  0
  -10.6080  -25.2601   29.4666 C   0  0  0  0  0  0  0  0  0  0  0  0
  -10.4677  -25.8751   28.2483 N   0  0  0  0  0  0  0  0  0  0  0  0
  -11.2946  -25.2373   27.3631 C   0  0  0  0  0  0  0  0  0  0  0  0
  -11.9638  -24.2640   27.9408 N   0  0  0  0  0  0  0  0  0  0  0  0
  -11.5412  -24.2934   29.2390 C   0  0  0  0  0  0  0  0  0  0  0  0
  -12.0088  -23.6458   30.2933 O   0  0  0  0  0  0  0  0  0  0  0  0
  -12.0721  -22.2726   30.1564 C   0  0  0  0  0  0  0  0  0  0  0  0
  -11.1011  -21.7069   30.9096 F   0  0  0  0  0  0  0  0  0  0  0  0
  -13.2301  -21.9429   30.7826 F   0  0  0  0  0  0  0  0  0  0  0  0
  -10.7011  -24.5274   33.7923 H   0  0  0  0  0  0  0  0  0  0  0  0
   -9.9043  -25.9331   33.6993 H   0  0  0  0  0  0  0  0  0  0  0  0
   -8.2992  -25.7515   32.6614 H   0  0  0  0  0  0  0  0  0  0  0  0
  -11.2953  -23.6923   32.0521 H   0  0  0  0  0  0  0  0  0  0  0  0
   -8.8086  -25.3304   30.3140 H   0  0  0  0  0  0  0  0  0  0  0  0
   -9.7478  -26.6883   30.8047 H   0  0  0  0  0  0  0  0  0  0  0  0
   -9.8275  -26.6272   28.0386 H   0  0  0  0  0  0  0  0  0  0  0  0
  -11.3629  -25.5183   26.3218 H   0  0  0  0  0  0  0  0  0  0  0  0
  -12.0557  -21.8702   29.1390 H   0  0  0  0  0  0  0  0  0  0  0  0
  1  2  1  0
  2  3  1  0
  2  4  1  0
  2  5  1  0
  5  6  1  0
  6  7  1  0
  7  8  1  0
  8  9  2  0
  9 10  1  0
 10 11  1  0
 11 12  1  0
 12 13  1  0
 12 14  1  0
 10  6  2  0
  1 15  1  0
  1 16  1  0
  3 17  1  0
  4 18  1  0
  5 19  1  0
  5 20  1  0
  7 21  1  0
  8 22  1  0
 12 23  1  0
M  END
>  <Energy>  (94) 
-87.865926094439118

>  <compound_id>  (94) 
736

>  <target_id>  (94) 
1

>  <reference_id>  (94) 
101

>  <inspiration_ids>  (94) 
[101, 34]

>  <energy_score>  (94) 
18.777526494903107

>  <distance_score>  (94) 
1.856360603624354

>  <path>  (94) 
/opt/xchem-fragalysis-2/maxwin/BulkDock/SCRATCH/505734/C736-P101/C736-P101.minimised.mol

>  <scratch_subdir>  (94) 
/opt/xchem-fragalysis-2/maxwin/BulkDock/SCRATCH/505734/C736-P101

>  <fragmenstein_runtime>  (94) 
1.065803050994873

>  <fragmenstein_outcome>  (94) 
too moved

>  <fragmenstein_mode>  (94) 
expansion

>  <fragmenstein_error>  (94) 


$$$$
C736-P34
     RDKit          3D

 23 23  0  0  0  0  0  0  0  0999 V2000
   -8.7305  -24.3417   31.4423 N   0  0  0  0  0  0  0  0  0  0  0  0
   -8.9004  -25.5821   30.7698 C   0  0  0  0  0  0  0  0  0  0  0  0
   -8.4489  -26.5381   31.6827 O   0  0  0  0  0  0  0  0  0  0  0  0
   -8.0949  -25.5128   29.6349 O   0  0  0  0  0  0  0  0  0  0  0  0
  -10.2819  -26.0139   30.2749 C   0  0  0  0  0  0  0  0  0  0  0  0
  -10.8206  -25.2348   29.1250 C   0  0  0  0  0  0  0  0  0  0  0  0
  -11.1056  -25.7983   27.9064 N   0  0  0  0  0  0  0  0  0  0  0  0
  -11.5133  -24.8015   27.0733 C   0  0  0  0  0  0  0  0  0  0  0  0
  -11.4542  -23.6321   27.6619 N   0  0  0  0  0  0  0  0  0  0  0  0
  -11.0434  -23.8882   28.9476 C   0  0  0  0  0  0  0  0  0  0  0  0
  -10.6582  -22.9414   29.8191 O   0  0  0  0  0  0  0  0  0  0  0  0
  -11.4177  -22.9007   31.0143 C   0  0  0  0  0  0  0  0  0  0  0  0
  -10.8438  -21.9435   31.8014 F   0  0  0  0  0  0  0  0  0  0  0  0
  -11.2913  -24.0297   31.7484 F   0  0  0  0  0  0  0  0  0  0  0  0
   -7.8763  -24.4077   31.9947 H   0  0  0  0  0  0  0  0  0  0  0  0
   -9.4727  -24.2885   32.1427 H   0  0  0  0  0  0  0  0  0  0  0  0
   -7.4869  -26.5598   31.5545 H   0  0  0  0  0  0  0  0  0  0  0  0
   -7.9807  -24.5487   29.5590 H   0  0  0  0  0  0  0  0  0  0  0  0
  -10.2371  -27.0661   29.9683 H   0  0  0  0  0  0  0  0  0  0  0  0
  -10.9525  -26.0156   31.1264 H   0  0  0  0  0  0  0  0  0  0  0  0
  -10.9633  -26.7585   27.6230 H   0  0  0  0  0  0  0  0  0  0  0  0
  -11.8084  -24.9826   26.0524 H   0  0  0  0  0  0  0  0  0  0  0  0
  -12.4630  -22.6288   30.8693 H   0  0  0  0  0  0  0  0  0  0  0  0
  1  2  1  0
  2  3  1  0
  2  4  1  0
  2  5  1  0
  5  6  1  0
  6  7  1  0
  7  8  1  0
  8  9  2  0
  9 10  1  0
 10 11  1  0
 11 12  1  0
 12 13  1  0
 12 14  1  0
 10  6  2  0
  1 15  1  0
  1 16  1  0
  3 17  1  0
  4 18  1  0
  5 19  1  0
  5 20  1  0
  7 21  1  0
  8 22  1  0
 12 23  1  0
M  END
>  <Energy>  (95) 
-113.00164858044661

>  <compound_id>  (95) 
736

>  <target_id>  (95) 
1

>  <reference_id>  (95) 
34

>  <inspiration_ids>  (95) 
[101, 34]

>  <energy_score>  (95) 
-6.3581959911023915

>  <distance_score>  (95) 
1.576952663231932

>  <path>  (95) 
/opt/xchem-fragalysis-2/maxwin/BulkDock/SCRATCH/505734/C736-P34/C736-P34.minimised.mol

>  <scratch_subdir>  (95) 
/opt/xchem-fragalysis-2/maxwin/BulkDock/SCRATCH/505734/C736-P34

>  <fragmenstein_runtime>  (95) 
1.0888569355010986

>  <fragmenstein_outcome>  (95) 
too moved

>  <fragmenstein_mode>  (95) 
expansion

>  <fragmenstein_error>  (95) 


$$$$
C737-P101
     RDKit          3D

 20 20  0  0  0  0  0  0  0  0999 V2000
  -11.8388  -23.0211   32.7376 C   0  0  0  0  0  0  0  0  0  0  0  0
  -11.9198  -22.8316   31.2924 C   0  0  0  0  0  0  0  0  0  0  0  0
  -11.9325  -22.8858   30.0929 C   0  0  0  0  0  0  0  0  0  0  0  0
  -11.8610  -23.3284   28.7466 C   0  0  0  0  0  0  0  0  0  0  0  0
  -12.6052  -24.3659   28.2612 C   0  0  0  0  0  0  0  0  0  0  0  0
  -11.6638  -25.1023   27.5976 N   0  0  0  0  0  0  0  0  0  0  0  0
  -11.0533  -26.3296   28.0993 C   0  0  0  0  0  0  0  0  0  0  0  0
  -10.3406  -26.1268   29.4345 C   0  0  0  0  0  0  0  0  0  0  0  0
  -10.8519  -24.1426   27.0841 C   0  0  0  0  0  0  0  0  0  0  0  0
  -10.8052  -23.1292   27.9237 N   0  0  0  0  0  0  0  0  0  0  0  0
  -10.8730  -23.4539   33.0096 H   0  0  0  0  0  0  0  0  0  0  0  0
  -11.9662  -22.0689   33.2590 H   0  0  0  0  0  0  0  0  0  0  0  0
  -12.6212  -23.7001   33.0893 H   0  0  0  0  0  0  0  0  0  0  0  0
  -13.5109  -24.7436   28.6524 H   0  0  0  0  0  0  0  0  0  0  0  0
  -11.8131  -27.1059   28.1311 H   0  0  0  0  0  0  0  0  0  0  0  0
  -10.3279  -26.6442   27.3411 H   0  0  0  0  0  0  0  0  0  0  0  0
   -9.4743  -25.4699   29.3074 H   0  0  0  0  0  0  0  0  0  0  0  0
  -10.9718  -25.6651   30.1932 H   0  0  0  0  0  0  0  0  0  0  0  0
   -9.9861  -27.0789   29.8307 H   0  0  0  0  0  0  0  0  0  0  0  0
  -10.2279  -24.3148   26.2290 H   0  0  0  0  0  0  0  0  0  0  0  0
  1  2  1  0
  2  3  3  0
  3  4  1  0
  4  5  2  0
  5  6  1  0
  6  7  1  0
  7  8  1  0
  6  9  1  0
  9 10  2  0
 10  4  1  0
  1 11  1  0
  1 12  1  0
  1 13  1  0
  5 14  1  0
  7 15  1  0
  7 16  1  0
  8 17  1  0
  8 18  1  0
  8 19  1  0
  9 20  1  0
M  END
>  <Energy>  (96) 
36.932270797757049

>  <compound_id>  (96) 
737

>  <target_id>  (96) 
1

>  <reference_id>  (96) 
101

>  <inspiration_ids>  (96) 
[101, 38]

>  <energy_score>  (96) 
27.293741844670905

>  <distance_score>  (96) 
1.6219001173056649

>  <path>  (96) 
/opt/xchem-fragalysis-2/maxwin/BulkDock/SCRATCH/505734/C737-P101/C737-P101.minimised.mol

>  <scratch_subdir>  (96) 
/opt/xchem-fragalysis-2/maxwin/BulkDock/SCRATCH/505734/C737-P101

>  <fragmenstein_runtime>  (96) 
2.7804951667785645

>  <fragmenstein_outcome>  (96) 
too moved

>  <fragmenstein_mode>  (96) 
expansion

>  <fragmenstein_error>  (96) 


$$$$
C737-P38
     RDKit          3D

 20 20  0  0  0  0  0  0  0  0999 V2000
  -12.1451  -23.0108   32.9436 C   0  0  0  0  0  0  0  0  0  0  0  0
  -12.2336  -23.0046   31.4916 C   0  0  0  0  0  0  0  0  0  0  0  0
  -12.2863  -23.1720   30.3059 C   0  0  0  0  0  0  0  0  0  0  0  0
  -12.2650  -23.6997   28.9930 C   0  0  0  0  0  0  0  0  0  0  0  0
  -12.7376  -24.9578   28.7079 C   0  0  0  0  0  0  0  0  0  0  0  0
  -11.7281  -25.4206   27.9023 N   0  0  0  0  0  0  0  0  0  0  0  0
  -10.9357  -26.5717   28.3054 C   0  0  0  0  0  0  0  0  0  0  0  0
  -10.4518  -26.4383   29.7545 C   0  0  0  0  0  0  0  0  0  0  0  0
  -11.1976  -24.3230   27.2836 C   0  0  0  0  0  0  0  0  0  0  0  0
  -11.4243  -23.2508   28.0146 N   0  0  0  0  0  0  0  0  0  0  0  0
  -11.3211  -23.6481   33.2672 H   0  0  0  0  0  0  0  0  0  0  0  0
  -12.0027  -21.9977   33.3248 H   0  0  0  0  0  0  0  0  0  0  0  0
  -13.0651  -23.4005   33.3881 H   0  0  0  0  0  0  0  0  0  0  0  0
  -13.3400  -25.6249   29.3010 H   0  0  0  0  0  0  0  0  0  0  0  0
  -11.5729  -27.4509   28.1731 H   0  0  0  0  0  0  0  0  0  0  0  0
  -10.0842  -26.6329   27.6222 H   0  0  0  0  0  0  0  0  0  0  0  0
  -11.2854  -26.4459   30.4644 H   0  0  0  0  0  0  0  0  0  0  0  0
   -9.7961  -27.2654   30.0270 H   0  0  0  0  0  0  0  0  0  0  0  0
   -9.8888  -25.5102   29.9009 H   0  0  0  0  0  0  0  0  0  0  0  0
  -10.5606  -24.3748   26.4145 H   0  0  0  0  0  0  0  0  0  0  0  0
  1  2  1  0
  2  3  3  0
  3  4  1  0
  4  5  2  0
  5  6  1  0
  6  7  1  0
  7  8  1  0
  6  9  1  0
  9 10  2  0
 10  4  1  0
  1 11  1  0
  1 12  1  0
  1 13  1  0
  5 14  1  0
  7 15  1  0
  7 16  1  0
  8 17  1  0
  8 18  1  0
  8 19  1  0
  9 20  1  0
M  END
>  <Energy>  (97) 
27.647457558459823

>  <compound_id>  (97) 
737

>  <target_id>  (97) 
1

>  <reference_id>  (97) 
38

>  <inspiration_ids>  (97) 
[101, 38]

>  <energy_score>  (97) 
18.008928605374635

>  <distance_score>  (97) 
1.6094022170247178

>  <path>  (97) 
/opt/xchem-fragalysis-2/maxwin/BulkDock/SCRATCH/505734/C737-P38/C737-P38.minimised.mol

>  <scratch_subdir>  (97) 
/opt/xchem-fragalysis-2/maxwin/BulkDock/SCRATCH/505734/C737-P38

>  <fragmenstein_runtime>  (97) 
2.931591272354126

>  <fragmenstein_outcome>  (97) 
too moved

>  <fragmenstein_mode>  (97) 
expansion

>  <fragmenstein_error>  (97) 


$$$$
C744-P101
     RDKit          3D

 16 17  0  0  0  0  0  0  0  0999 V2000
  -11.8305  -22.8526   30.8208 C   0  0  0  0  0  0  0  0  0  0  0  0
  -11.8045  -21.8671   29.9566 N   0  0  0  0  0  0  0  0  0  0  0  0
  -11.6105  -22.4623   28.7393 C   0  0  0  0  0  0  0  0  0  0  0  0
  -11.5598  -23.8286   28.8576 C   0  0  0  0  0  0  0  0  0  0  0  0
  -11.4816  -24.8500   27.8889 C   0  0  0  0  0  0  0  0  0  0  0  0
  -11.0052  -26.1372   27.9612 C   0  0  0  0  0  0  0  0  0  0  0  0
  -11.2687  -26.8166   26.7986 N   0  0  0  0  0  0  0  0  0  0  0  0
  -11.8816  -25.9469   26.0284 C   0  0  0  0  0  0  0  0  0  0  0  0
  -11.9734  -24.7199   26.6182 N   0  0  0  0  0  0  0  0  0  0  0  0
  -11.6346  -24.0560   30.2073 N   0  0  0  0  0  0  0  0  0  0  0  0
  -11.9931  -22.7703   31.8867 H   0  0  0  0  0  0  0  0  0  0  0  0
  -11.5178  -21.8777   27.8387 H   0  0  0  0  0  0  0  0  0  0  0  0
  -10.5219  -26.6204   28.8008 H   0  0  0  0  0  0  0  0  0  0  0  0
  -12.2784  -26.1455   25.0439 H   0  0  0  0  0  0  0  0  0  0  0  0
  -12.4023  -23.8876   26.2299 H   0  0  0  0  0  0  0  0  0  0  0  0
  -11.7366  -24.9529   30.6657 H   0  0  0  0  0  0  0  0  0  0  0  0
  1  2  2  0
  2  3  1  0
  3  4  2  0
  4  5  1  0
  5  6  2  0
  6  7  1  0
  7  8  2  0
  8  9  1  0
  4 10  1  0
 10  1  1  0
  9  5  1  0
  1 11  1  0
  3 12  1  0
  6 13  1  0
  8 14  1  0
  9 15  1  0
 10 16  1  0
M  END
>  <Energy>  (98) 
3.1376339386572454

>  <compound_id>  (98) 
744

>  <target_id>  (98) 
1

>  <reference_id>  (98) 
101

>  <inspiration_ids>  (98) 
[101, 54]

>  <energy_score>  (98) 
-13.122915076645327

>  <distance_score>  (98) 
1.2194664552045458

>  <path>  (98) 
/opt/xchem-fragalysis-2/maxwin/BulkDock/SCRATCH/505734/C744-P101/C744-P101.minimised.mol

>  <scratch_subdir>  (98) 
/opt/xchem-fragalysis-2/maxwin/BulkDock/SCRATCH/505734/C744-P101

>  <fragmenstein_runtime>  (98) 
1.7469546794891357

>  <fragmenstein_outcome>  (98) 
too moved

>  <fragmenstein_mode>  (98) 
expansion

>  <fragmenstein_error>  (98) 


$$$$
C744-P54
     RDKit          3D

 16 17  0  0  0  0  0  0  0  0999 V2000
  -10.7094  -22.5132   30.4792 C   0  0  0  0  0  0  0  0  0  0  0  0
  -10.9751  -21.6212   29.5544 N   0  0  0  0  0  0  0  0  0  0  0  0
  -11.3228  -22.3410   28.4421 C   0  0  0  0  0  0  0  0  0  0  0  0
  -11.3124  -23.6930   28.7133 C   0  0  0  0  0  0  0  0  0  0  0  0
  -11.6941  -24.8169   27.9430 C   0  0  0  0  0  0  0  0  0  0  0  0
  -11.4832  -26.1669   28.1139 C   0  0  0  0  0  0  0  0  0  0  0  0
  -12.1213  -26.8934   27.1437 N   0  0  0  0  0  0  0  0  0  0  0  0
  -12.7495  -26.0019   26.4152 C   0  0  0  0  0  0  0  0  0  0  0  0
  -12.4732  -24.7282   26.8207 N   0  0  0  0  0  0  0  0  0  0  0  0
  -10.8582  -23.7820   30.0048 N   0  0  0  0  0  0  0  0  0  0  0  0
  -10.4074  -22.3002   31.4962 H   0  0  0  0  0  0  0  0  0  0  0  0
  -11.5838  -21.8367   27.5193 H   0  0  0  0  0  0  0  0  0  0  0  0
  -10.9318  -26.6680   28.8944 H   0  0  0  0  0  0  0  0  0  0  0  0
  -13.4229  -26.2099   25.5965 H   0  0  0  0  0  0  0  0  0  0  0  0
  -12.8453  -23.8768   26.4202 H   0  0  0  0  0  0  0  0  0  0  0  0
  -10.7103  -24.6272   30.5352 H   0  0  0  0  0  0  0  0  0  0  0  0
  1  2  2  0
  2  3  1  0
  3  4  2  0
  4  5  1  0
  5  6  2  0
  6  7  1  0
  7  8  2  0
  8  9  1  0
  4 10  1  0
 10  1  1  0
  9  5  1  0
  1 11  1  0
  3 12  1  0
  6 13  1  0
  8 14  1  0
  9 15  1  0
 10 16  1  0
M  END
>  <Energy>  (99) 
2.3290113823506591

>  <compound_id>  (99) 
744

>  <target_id>  (99) 
1

>  <reference_id>  (99) 
54

>  <inspiration_ids>  (99) 
[101, 54]

>  <energy_score>  (99) 
-13.931537632952285

>  <distance_score>  (99) 
1.0321698483799362

>  <path>  (99) 
/opt/xchem-fragalysis-2/maxwin/BulkDock/SCRATCH/505734/C744-P54/C744-P54.minimised.mol

>  <scratch_subdir>  (99) 
/opt/xchem-fragalysis-2/maxwin/BulkDock/SCRATCH/505734/C744-P54

>  <fragmenstein_runtime>  (99) 
1.514970302581787

>  <fragmenstein_outcome>  (99) 
too moved

>  <fragmenstein_mode>  (99) 
expansion

>  <fragmenstein_error>  (99) 


$$$$
C745-P101
     RDKit          3D

 29 30  0  0  0  0  0  0  0  0999 V2000
   -9.8831  -27.2043   30.0679 N   0  0  0  0  0  0  0  0  0  0  0  0
  -10.5809  -26.6393   29.3388 C   0  0  0  0  0  0  0  0  0  0  0  0
  -11.3707  -25.6864   28.5655 C   0  0  0  0  0  0  0  0  0  0  0  0
  -10.9229  -25.7180   27.1649 N   0  0  0  0  0  0  0  0  0  0  0  0
  -10.7944  -24.3238   26.8982 C   0  0  0  0  0  0  0  0  0  0  0  0
  -10.2665  -23.7863   28.1503 N   0  0  0  0  0  0  0  0  0  0  0  0
  -11.1981  -24.2755   29.1966 C   0  0  0  0  0  0  0  0  0  0  0  0
  -10.7547  -24.4330   30.7151 C   0  0  0  0  0  0  0  0  0  0  0  0
  -11.1835  -23.5088   31.8529 C   0  0  0  0  0  0  0  0  0  0  0  0
  -12.3349  -22.6014   31.5125 C   0  0  0  0  0  0  0  0  0  0  0  0
  -12.4326  -21.5606   32.5261 N   0  0  0  0  0  0  0  0  0  0  0  0
  -12.0847  -22.0965   30.1047 C   0  0  0  0  0  0  0  0  0  0  0  0
  -12.3393  -23.2555   29.1329 C   0  0  0  0  0  0  0  0  0  0  0  0
  -12.4079  -25.8708   28.4382 H   0  0  0  0  0  0  0  0  0  0  0  0
   -9.9893  -26.1236   27.1528 H   0  0  0  0  0  0  0  0  0  0  0  0
  -11.7486  -23.8843   26.5898 H   0  0  0  0  0  0  0  0  0  0  0  0
  -10.1374  -24.2035   26.0517 H   0  0  0  0  0  0  0  0  0  0  0  0
   -9.3561  -24.1956   28.3229 H   0  0  0  0  0  0  0  0  0  0  0  0
  -11.2186  -25.3417   31.0752 H   0  0  0  0  0  0  0  0  0  0  0  0
   -9.6785  -24.6253   30.7916 H   0  0  0  0  0  0  0  0  0  0  0  0
  -11.4440  -24.1126   32.7350 H   0  0  0  0  0  0  0  0  0  0  0  0
  -10.3286  -22.9279   32.1921 H   0  0  0  0  0  0  0  0  0  0  0  0
  -13.2846  -23.1368   31.5488 H   0  0  0  0  0  0  0  0  0  0  0  0
  -11.5558  -21.0409   32.5760 H   0  0  0  0  0  0  0  0  0  0  0  0
  -12.5266  -22.0091   33.4430 H   0  0  0  0  0  0  0  0  0  0  0  0
  -12.7048  -21.2603   29.8472 H   0  0  0  0  0  0  0  0  0  0  0  0
  -11.0808  -21.6813   29.9924 H   0  0  0  0  0  0  0  0  0  0  0  0
  -13.2980  -23.7310   29.3318 H   0  0  0  0  0  0  0  0  0  0  0  0
  -12.4543  -22.8152   28.1438 H   0  0  0  0  0  0  0  0  0  0  0  0
  1  2  3  0
  2  3  1  0
  3  4  1  0
  4  5  1  0
  5  6  1  0
  6  7  1  0
  7  8  1  0
  8  9  1  0
  9 10  1  0
 10 11  1  0
 10 12  1  0
 12 13  1  0
  7  3  1  0
 13  7  1  0
  3 14  1  0
  4 15  1  0
  5 16  1  0
  5 17  1  0
  6 18  1  0
  8 19  1  0
  8 20  1  0
  9 21  1  0
  9 22  1  0
 10 23  1  0
 11 24  1  0
 11 25  1  0
 12 26  1  0
 12 27  1  0
 13 28  1  0
 13 29  1  0
M  END
>  <Energy>  (100) 
59.88108200756853

>  <compound_id>  (100) 
745

>  <target_id>  (100) 
1

>  <reference_id>  (100) 
101

>  <inspiration_ids>  (100) 
[101, 62]

>  <energy_score>  (100) 
19.561867342566217

>  <distance_score>  (100) 
1.342288945599832

>  <path>  (100) 
/opt/xchem-fragalysis-2/maxwin/BulkDock/SCRATCH/505734/C745-P101/C745-P101.minimised.mol

>  <scratch_subdir>  (100) 
/opt/xchem-fragalysis-2/maxwin/BulkDock/SCRATCH/505734/C745-P101

>  <fragmenstein_runtime>  (100) 
1.509162425994873

>  <fragmenstein_outcome>  (100) 
too moved

>  <fragmenstein_mode>  (100) 
expansion

>  <fragmenstein_error>  (100) 


$$$$
C745-P62
     RDKit          3D

 29 30  0  0  0  0  0  0  0  0999 V2000
  -11.1014  -27.6855   30.7174 N   0  0  0  0  0  0  0  0  0  0  0  0
  -11.6211  -26.8481   30.1072 C   0  0  0  0  0  0  0  0  0  0  0  0
  -12.1347  -25.6568   29.4050 C   0  0  0  0  0  0  0  0  0  0  0  0
  -12.0756  -25.7806   27.9526 N   0  0  0  0  0  0  0  0  0  0  0  0
  -10.7555  -25.3348   27.5733 C   0  0  0  0  0  0  0  0  0  0  0  0
  -10.0982  -24.8042   28.7774 N   0  0  0  0  0  0  0  0  0  0  0  0
  -11.1994  -24.4801   29.7144 C   0  0  0  0  0  0  0  0  0  0  0  0
  -10.8573  -24.4734   31.2359 C   0  0  0  0  0  0  0  0  0  0  0  0
  -12.0923  -24.1403   32.0782 C   0  0  0  0  0  0  0  0  0  0  0  0
  -12.8511  -22.9158   31.5488 C   0  0  0  0  0  0  0  0  0  0  0  0
  -13.1786  -22.0065   32.6426 N   0  0  0  0  0  0  0  0  0  0  0  0
  -12.0449  -22.1886   30.4791 C   0  0  0  0  0  0  0  0  0  0  0  0
  -11.7677  -23.1041   29.2911 C   0  0  0  0  0  0  0  0  0  0  0  0
  -13.1457  -25.4109   29.7052 H   0  0  0  0  0  0  0  0  0  0  0  0
  -12.2187  -26.7306   27.6274 H   0  0  0  0  0  0  0  0  0  0  0  0
  -10.8188  -24.5623   26.8011 H   0  0  0  0  0  0  0  0  0  0  0  0
  -10.1814  -26.1769   27.1803 H   0  0  0  0  0  0  0  0  0  0  0  0
   -9.5413  -25.5610   29.1762 H   0  0  0  0  0  0  0  0  0  0  0  0
  -10.4094  -25.4060   31.5903 H   0  0  0  0  0  0  0  0  0  0  0  0
  -10.0960  -23.7504   31.5104 H   0  0  0  0  0  0  0  0  0  0  0  0
  -12.7762  -24.9965   32.1173 H   0  0  0  0  0  0  0  0  0  0  0  0
  -11.7697  -23.9971   33.1152 H   0  0  0  0  0  0  0  0  0  0  0  0
  -13.7929  -23.2524   31.1024 H   0  0  0  0  0  0  0  0  0  0  0  0
  -12.3482  -21.8239   33.2084 H   0  0  0  0  0  0  0  0  0  0  0  0
  -13.8165  -22.4962   33.2760 H   0  0  0  0  0  0  0  0  0  0  0  0
  -12.5439  -21.3151   30.0850 H   0  0  0  0  0  0  0  0  0  0  0  0
  -11.1196  -21.7950   30.9124 H   0  0  0  0  0  0  0  0  0  0  0  0
  -12.6860  -23.2339   28.7134 H   0  0  0  0  0  0  0  0  0  0  0  0
  -11.0820  -22.5685   28.6206 H   0  0  0  0  0  0  0  0  0  0  0  0
  1  2  3  0
  2  3  1  0
  3  4  1  0
  4  5  1  0
  5  6  1  0
  6  7  1  0
  7  8  1  0
  8  9  1  0
  9 10  1  0
 10 11  1  0
 10 12  1  0
 12 13  1  0
  7  3  1  0
 13  7  1  0
  3 14  1  0
  4 15  1  0
  5 16  1  0
  5 17  1  0
  6 18  1  0
  8 19  1  0
  8 20  1  0
  9 21  1  0
  9 22  1  0
 10 23  1  0
 11 24  1  0
 11 25  1  0
 12 26  1  0
 12 27  1  0
 13 28  1  0
 13 29  1  0
M  END
>  <Energy>  (101) 
35.62976730679317

>  <compound_id>  (101) 
745

>  <target_id>  (101) 
1

>  <reference_id>  (101) 
62

>  <inspiration_ids>  (101) 
[101, 62]

>  <energy_score>  (101) 
-4.689447358208334

>  <distance_score>  (101) 
1.6419298929152808

>  <path>  (101) 
/opt/xchem-fragalysis-2/maxwin/BulkDock/SCRATCH/505734/C745-P62/C745-P62.minimised.mol

>  <scratch_subdir>  (101) 
/opt/xchem-fragalysis-2/maxwin/BulkDock/SCRATCH/505734/C745-P62

>  <fragmenstein_runtime>  (101) 
1.4074981212615967

>  <fragmenstein_outcome>  (101) 
too moved

>  <fragmenstein_mode>  (101) 
expansion

>  <fragmenstein_error>  (101) 


$$$$
C2566-P101
     RDKit          3D

 42 44  0  0  0  0  0  0  0  0999 V2000
   -9.4395  -27.8392   31.0275 N   0  0  0  0  0  0  0  0  0  0  0  0
   -9.8238  -27.0955   30.2323 C   0  0  0  0  0  0  0  0  0  0  0  0
  -10.2492  -26.0628   29.4052 C   0  0  0  0  0  0  0  0  0  0  0  0
  -10.4656  -26.0525   28.0606 N   0  0  0  0  0  0  0  0  0  0  0  0
  -10.9680  -24.8241   27.7436 C   0  0  0  0  0  0  0  0  0  0  0  0
  -11.0570  -24.0686   28.8116 N   0  0  0  0  0  0  0  0  0  0  0  0
  -10.5981  -24.8339   29.8586 C   0  0  0  0  0  0  0  0  0  0  0  0
  -10.6140  -24.3693   31.2019 N   0  0  0  0  0  0  0  0  0  0  0  0
  -10.1699  -24.8833   32.4005 C   0  0  0  0  0  0  0  0  0  0  0  0
  -11.1569  -24.5276   33.3075 C   0  0  0  0  0  0  0  0  0  0  0  0
  -11.8623  -23.5413   32.6190 C   0  0  0  0  0  0  0  0  0  0  0  0
  -13.1241  -22.7893   32.8065 C   0  0  0  0  0  0  0  0  0  0  0  0
  -13.4871  -22.1185   31.4467 C   0  0  0  0  0  0  0  0  0  0  0  0
  -12.3496  -21.1949   31.0861 N   0  0  0  0  0  0  0  0  0  0  0  0
  -11.9436  -20.6250   29.5409 S   0  0  0  0  0  0  0  0  0  0  0  0
  -12.3680  -21.6295   28.6176 O   0  0  0  0  0  0  0  0  0  0  0  0
  -10.5443  -20.6154   29.8528 O   0  0  0  0  0  0  0  0  0  0  0  0
  -12.4735  -18.4221   29.0663 N   0  0  0  0  0  0  0  0  0  0  0  0
  -12.6007  -16.5220   29.5219 C   0  0  0  0  0  0  0  0  0  0  0  0
  -11.7815  -15.2671   28.2140 C   0  0  0  0  0  0  0  0  0  0  0  0
  -10.7325  -15.4037   27.1844 N   0  0  0  0  0  0  0  0  0  0  0  0
  -10.3334  -16.8225   27.0858 C   0  0  0  0  0  0  0  0  0  0  0  0
  -11.2658  -17.7647   28.5301 C   0  0  0  0  0  0  0  0  0  0  0  0
  -11.1591  -23.2205   31.5307 N   0  0  0  0  0  0  0  0  0  0  0  0
  -10.2971  -26.8046   27.4125 H   0  0  0  0  0  0  0  0  0  0  0  0
  -11.2479  -24.5279   26.7405 H   0  0  0  0  0  0  0  0  0  0  0  0
   -9.3385  -25.5521   32.4216 H   0  0  0  0  0  0  0  0  0  0  0  0
  -11.3492  -24.9469   34.2829 H   0  0  0  0  0  0  0  0  0  0  0  0
  -13.9314  -23.4585   33.1198 H   0  0  0  0  0  0  0  0  0  0  0  0
  -12.9884  -22.0233   33.5775 H   0  0  0  0  0  0  0  0  0  0  0  0
  -13.5937  -22.8692   30.6617 H   0  0  0  0  0  0  0  0  0  0  0  0
  -14.4291  -21.5753   31.5595 H   0  0  0  0  0  0  0  0  0  0  0  0
  -11.4765  -21.7178   31.2920 H   0  0  0  0  0  0  0  0  0  0  0  0
  -12.2691  -16.2995   30.5481 H   0  0  0  0  0  0  0  0  0  0  0  0
  -13.5791  -16.0828   29.4494 H   0  0  0  0  0  0  0  0  0  0  0  0
  -11.6359  -14.3132   28.7286 H   0  0  0  0  0  0  0  0  0  0  0  0
  -12.4019  -15.3263   27.3878 H   0  0  0  0  0  0  0  0  0  0  0  0
  -11.2118  -15.1483   26.3358 H   0  0  0  0  0  0  0  0  0  0  0  0
  -10.2669  -17.1489   26.0484 H   0  0  0  0  0  0  0  0  0  0  0  0
   -9.2185  -16.8643   27.1659 H   0  0  0  0  0  0  0  0  0  0  0  0
  -11.9384  -18.1089   27.9575 H   0  0  0  0  0  0  0  0  0  0  0  0
  -10.6709  -18.1618   29.2350 H   0  0  0  0  0  0  0  0  0  0  0  0
  1  2  3  0
  2  3  1  0
  3  4  1  0
  4  5  1  0
  5  6  2  0
  6  7  1  0
  7  8  1  0
  8  9  1  0
  9 10  2  0
 10 11  1  0
 11 12  1  0
 12 13  1  0
 13 14  1  0
 14 15  1  0
 15 16  2  0
 15 17  2  0
 15 18  1  0
 18 19  1  0
 19 20  1  0
 20 21  1  0
 21 22  1  0
 22 23  1  0
 11 24  2  0
  7  3  2  0
 24  8  1  0
 23 18  1  0
  4 25  1  0
  5 26  1  0
  9 27  1  0
 10 28  1  0
 12 29  1  0
 12 30  1  0
 13 31  1  0
 13 32  1  0
 14 33  1  0
 19 34  1  0
 19 35  1  0
 20 36  1  0
 20 37  1  0
 21 38  1  0
 22 39  1  0
 22 40  1  0
 23 41  1  0
 23 42  1  0
M  END
>  <Energy>  (102) 
462.3024730752233

>  <compound_id>  (102) 
2566

>  <target_id>  (102) 
1

>  <reference_id>  (102) 
101

>  <inspiration_ids>  (102) 
[101, 82]

>  <energy_score>  (102) 
480.5754758342595

>  <distance_score>  (102) 
1.6055070173573553

>  <path>  (102) 
/opt/xchem-fragalysis-2/maxwin/BulkDock/SCRATCH/505734/C2566-P101/C2566-P101.minimised.mol

>  <scratch_subdir>  (102) 
/opt/xchem-fragalysis-2/maxwin/BulkDock/SCRATCH/505734/C2566-P101

>  <fragmenstein_runtime>  (102) 
8.813820123672485

>  <fragmenstein_outcome>  (102) 
too moved

>  <fragmenstein_mode>  (102) 
expansion

>  <fragmenstein_error>  (102) 


$$$$
C2566-P82
     RDKit          3D

 42 44  0  0  0  0  0  0  0  0999 V2000
  -10.5811  -28.1354   31.2914 N   0  0  0  0  0  0  0  0  0  0  0  0
  -10.4176  -27.2550   30.5644 C   0  0  0  0  0  0  0  0  0  0  0  0
  -10.4300  -26.1178   29.7661 C   0  0  0  0  0  0  0  0  0  0  0  0
  -10.6287  -26.0201   28.4189 N   0  0  0  0  0  0  0  0  0  0  0  0
  -10.8281  -24.7048   28.1392 C   0  0  0  0  0  0  0  0  0  0  0  0
  -10.7582  -23.9851   29.2342 N   0  0  0  0  0  0  0  0  0  0  0  0
  -10.4922  -24.8528   30.2540 C   0  0  0  0  0  0  0  0  0  0  0  0
  -10.5218  -24.4462   31.6189 N   0  0  0  0  0  0  0  0  0  0  0  0
  -10.3064  -25.1788   32.7619 C   0  0  0  0  0  0  0  0  0  0  0  0
  -11.3865  -24.8584   33.5588 C   0  0  0  0  0  0  0  0  0  0  0  0
  -11.9966  -23.7946   32.8929 C   0  0  0  0  0  0  0  0  0  0  0  0
  -13.3775  -23.2453   32.8548 C   0  0  0  0  0  0  0  0  0  0  0  0
  -13.7084  -22.9188   31.3666 C   0  0  0  0  0  0  0  0  0  0  0  0
  -12.8656  -21.7650   30.9844 N   0  0  0  0  0  0  0  0  0  0  0  0
  -12.3191  -21.3588   29.4307 S   0  0  0  0  0  0  0  0  0  0  0  0
  -12.5921  -22.3353   28.4133 O   0  0  0  0  0  0  0  0  0  0  0  0
  -11.0170  -20.8321   29.7239 O   0  0  0  0  0  0  0  0  0  0  0  0
  -13.6747  -19.7411   29.1191 N   0  0  0  0  0  0  0  0  0  0  0  0
  -15.0950  -19.8969   30.5374 C   0  0  0  0  0  0  0  0  0  0  0  0
  -16.0837  -18.3560   30.0479 C   0  0  0  0  0  0  0  0  0  0  0  0
  -15.9360  -17.0863   28.6980 N   0  0  0  0  0  0  0  0  0  0  0  0
  -14.4636  -17.3726   27.8046 C   0  0  0  0  0  0  0  0  0  0  0  0
  -12.7482  -18.0405   28.8238 C   0  0  0  0  0  0  0  0  0  0  0  0
  -11.1107  -23.3054   32.0160 N   0  0  0  0  0  0  0  0  0  0  0  0
  -10.7280  -26.7680   27.7517 H   0  0  0  0  0  0  0  0  0  0  0  0
  -11.0470  -24.3251   27.1482 H   0  0  0  0  0  0  0  0  0  0  0  0
   -9.5606  -25.9475   32.8065 H   0  0  0  0  0  0  0  0  0  0  0  0
  -11.7091  -25.4027   34.4196 H   0  0  0  0  0  0  0  0  0  0  0  0
  -14.0897  -23.9795   33.2420 H   0  0  0  0  0  0  0  0  0  0  0  0
  -13.4441  -22.3410   33.4689 H   0  0  0  0  0  0  0  0  0  0  0  0
  -13.4398  -23.7872   30.7638 H   0  0  0  0  0  0  0  0  0  0  0  0
  -14.7652  -22.6705   31.2813 H   0  0  0  0  0  0  0  0  0  0  0  0
  -11.9376  -21.9456   31.4210 H   0  0  0  0  0  0  0  0  0  0  0  0
  -15.5719  -20.8963   30.4137 H   0  0  0  0  0  0  0  0  0  0  0  0
  -14.9429  -19.9079   31.6282 H   0  0  0  0  0  0  0  0  0  0  0  0
  -15.7124  -18.4920   29.0874 H   0  0  0  0  0  0  0  0  0  0  0  0
  -17.0963  -18.5917   30.4235 H   0  0  0  0  0  0  0  0  0  0  0  0
  -15.5072  -16.3375   29.2333 H   0  0  0  0  0  0  0  0  0  0  0  0
  -14.1651  -16.4447   28.0865 H   0  0  0  0  0  0  0  0  0  0  0  0
  -14.8189  -17.6730   26.8167 H   0  0  0  0  0  0  0  0  0  0  0  0
  -11.7893  -18.1029   28.4025 H   0  0  0  0  0  0  0  0  0  0  0  0
  -12.5127  -17.2692   29.5943 H   0  0  0  0  0  0  0  0  0  0  0  0
  1  2  3  0
  2  3  1  0
  3  4  1  0
  4  5  1  0
  5  6  2  0
  6  7  1  0
  7  8  1  0
  8  9  1  0
  9 10  2  0
 10 11  1  0
 11 12  1  0
 12 13  1  0
 13 14  1  0
 14 15  1  0
 15 16  2  0
 15 17  2  0
 15 18  1  0
 18 19  1  0
 19 20  1  0
 20 21  1  0
 21 22  1  0
 22 23  1  0
 11 24  2  0
  7  3  2  0
 24  8  1  0
 23 18  1  0
  4 25  1  0
  5 26  1  0
  9 27  1  0
 10 28  1  0
 12 29  1  0
 12 30  1  0
 13 31  1  0
 13 32  1  0
 14 33  1  0
 19 34  1  0
 19 35  1  0
 20 36  1  0
 20 37  1  0
 21 38  1  0
 22 39  1  0
 22 40  1  0
 23 41  1  0
 23 42  1  0
M  END
>  <Energy>  (103) 
371.79091097595892

>  <compound_id>  (103) 
2566

>  <target_id>  (103) 
1

>  <reference_id>  (103) 
82

>  <inspiration_ids>  (103) 
[101, 82]

>  <energy_score>  (103) 
390.063913734998

>  <distance_score>  (103) 
1.7803149790807153

>  <path>  (103) 
/opt/xchem-fragalysis-2/maxwin/BulkDock/SCRATCH/505734/C2566-P82/C2566-P82.minimised.mol

>  <scratch_subdir>  (103) 
/opt/xchem-fragalysis-2/maxwin/BulkDock/SCRATCH/505734/C2566-P82

>  <fragmenstein_runtime>  (103) 
7.70026707649231

>  <fragmenstein_outcome>  (103) 
too moved

>  <fragmenstein_mode>  (103) 
expansion

>  <fragmenstein_error>  (103) 


$$$$
C1572-P101
     RDKit          3D

 54 56  0  0  0  0  0  0  0  0999 V2000
   -9.6083  -23.5829   27.9488 C   0  0  0  0  0  0  0  0  0  0  0  0
  -10.7358  -23.9964   27.1229 C   0  0  0  0  0  0  0  0  0  0  0  0
  -10.6872  -24.1555   25.9067 O   0  0  0  0  0  0  0  0  0  0  0  0
  -11.9966  -23.9721   27.8849 C   0  0  0  0  0  0  0  0  0  0  0  0
  -13.0674  -24.6344   26.9377 C   0  0  0  0  0  0  0  0  0  0  0  0
  -12.7314  -25.8941   26.0974 C   0  0  0  0  0  0  0  0  0  0  0  0
  -12.2996  -27.0081   26.9070 N   0  0  0  0  0  0  0  0  0  0  0  0
  -11.1519  -26.9435   27.6247 C   0  0  0  0  0  0  0  0  0  0  0  0
  -10.0660  -26.3448   27.3805 N   0  0  0  0  0  0  0  0  0  0  0  0
   -9.0942  -26.4454   28.4532 C   0  0  0  0  0  0  0  0  0  0  0  0
   -9.5560  -26.2732   29.8578 C   0  0  0  0  0  0  0  0  0  0  0  0
  -10.6554  -27.1486   29.9733 C   0  0  0  0  0  0  0  0  0  0  0  0
  -11.3701  -27.5397   28.7895 N   0  0  0  0  0  0  0  0  0  0  0  0
  -12.1120  -22.4925   28.1437 C   0  0  0  0  0  0  0  0  0  0  0  0
  -12.2892  -22.0693   29.5897 C   0  0  0  0  0  0  0  0  0  0  0  0
  -11.2530  -21.6312   30.5518 C   0  0  0  0  0  0  0  0  0  0  0  0
  -10.5103  -20.7006   29.8794 O   0  0  0  0  0  0  0  0  0  0  0  0
  -12.9928  -23.2762   30.0811 C   0  0  0  0  0  0  0  0  0  0  0  0
  -13.2401  -23.0548   31.5560 C   0  0  0  0  0  0  0  0  0  0  0  0
  -14.2200  -22.1274   31.9515 C   0  0  0  0  0  0  0  0  0  0  0  0
  -14.0619  -21.4178   33.1175 C   0  0  0  0  0  0  0  0  0  0  0  0
  -12.9307  -21.6660   33.8503 C   0  0  0  0  0  0  0  0  0  0  0  0
  -12.2589  -22.8672   33.6786 C   0  0  0  0  0  0  0  0  0  0  0  0
  -12.3731  -23.5634   32.5071 C   0  0  0  0  0  0  0  0  0  0  0  0
  -12.0628  -24.2896   29.3721 C   0  0  0  0  0  0  0  0  0  0  0  0
   -9.8983  -22.6151   28.3190 H   0  0  0  0  0  0  0  0  0  0  0  0
   -8.6641  -23.4207   27.4844 H   0  0  0  0  0  0  0  0  0  0  0  0
   -9.4736  -24.1977   28.7874 H   0  0  0  0  0  0  0  0  0  0  0  0
  -13.3769  -23.8934   26.1889 H   0  0  0  0  0  0  0  0  0  0  0  0
  -13.9550  -24.8738   27.5198 H   0  0  0  0  0  0  0  0  0  0  0  0
  -13.6617  -26.1962   25.5986 H   0  0  0  0  0  0  0  0  0  0  0  0
  -12.0310  -25.7277   25.2789 H   0  0  0  0  0  0  0  0  0  0  0  0
  -12.3409  -27.8759   26.3762 H   0  0  0  0  0  0  0  0  0  0  0  0
   -8.4717  -27.2844   28.2356 H   0  0  0  0  0  0  0  0  0  0  0  0
   -8.3961  -25.6563   28.4561 H   0  0  0  0  0  0  0  0  0  0  0  0
   -9.7314  -25.2509   30.1539 H   0  0  0  0  0  0  0  0  0  0  0  0
   -8.9907  -26.5142   30.7700 H   0  0  0  0  0  0  0  0  0  0  0  0
  -11.2166  -26.4045   30.5055 H   0  0  0  0  0  0  0  0  0  0  0  0
  -10.4009  -27.9963   30.6067 H   0  0  0  0  0  0  0  0  0  0  0  0
  -12.3047  -27.2687   28.9658 H   0  0  0  0  0  0  0  0  0  0  0  0
  -13.1149  -22.4816   27.8548 H   0  0  0  0  0  0  0  0  0  0  0  0
  -11.5326  -21.8139   27.5228 H   0  0  0  0  0  0  0  0  0  0  0  0
  -12.8072  -21.1310   29.5413 H   0  0  0  0  0  0  0  0  0  0  0  0
  -10.6912  -22.4394   30.9989 H   0  0  0  0  0  0  0  0  0  0  0  0
  -11.6529  -21.1059   31.4163 H   0  0  0  0  0  0  0  0  0  0  0  0
  -10.8089  -20.5670   28.9593 H   0  0  0  0  0  0  0  0  0  0  0  0
  -13.9470  -23.3799   29.5927 H   0  0  0  0  0  0  0  0  0  0  0  0
  -15.0138  -21.8178   31.2875 H   0  0  0  0  0  0  0  0  0  0  0  0
  -14.7304  -20.6056   33.3758 H   0  0  0  0  0  0  0  0  0  0  0  0
  -12.6152  -20.9573   34.6071 H   0  0  0  0  0  0  0  0  0  0  0  0
  -11.6060  -23.2424   34.4372 H   0  0  0  0  0  0  0  0  0  0  0  0
  -11.7089  -24.3945   32.2990 H   0  0  0  0  0  0  0  0  0  0  0  0
  -12.3531  -25.2893   29.3862 H   0  0  0  0  0  0  0  0  0  0  0  0
  -11.1256  -24.2157   29.8901 H   0  0  0  0  0  0  0  0  0  0  0  0
  1  2  1  0
  2  3  2  0
  2  4  1  0
  4  5  1  0
  5  6  1  0
  6  7  1  0
  7  8  1  0
  8  9  2  0
  9 10  1  0
 10 11  1  0
 11 12  1  0
 12 13  1  0
  4 14  1  0
 14 15  1  0
 15 16  1  0
 16 17  1  0
 15 18  1  0
 18 19  1  0
 19 20  2  0
 20 21  1  0
 21 22  2  0
 22 23  1  0
 23 24  2  0
 18 25  1  0
 25  4  1  0
 13  8  1  0
 24 19  1  0
  1 26  1  0
  1 27  1  0
  1 28  1  0
  5 29  1  0
  5 30  1  0
  6 31  1  0
  6 32  1  0
  7 33  1  0
 10 34  1  0
 10 35  1  0
 11 36  1  0
 11 37  1  0
 12 38  1  0
 12 39  1  0
 13 40  1  0
 14 41  1  0
 14 42  1  0
 15 43  1  0
 16 44  1  0
 16 45  1  0
 17 46  1  0
 18 47  1  0
 20 48  1  0
 21 49  1  0
 22 50  1  0
 23 51  1  0
 24 52  1  0
 25 53  1  0
 25 54  1  0
M  END
>  <Energy>  (104) 
103.00907557448956

>  <compound_id>  (104) 
1572

>  <target_id>  (104) 
1

>  <reference_id>  (104) 
101

>  <inspiration_ids>  (104) 
[101, 88]

>  <energy_score>  (104) 
131.4973866657721

>  <distance_score>  (104) 
2.69335759590863

>  <path>  (104) 
/opt/xchem-fragalysis-2/maxwin/BulkDock/SCRATCH/505734/C1572-P101/C1572-P101.minimised.mol

>  <scratch_subdir>  (104) 
/opt/xchem-fragalysis-2/maxwin/BulkDock/SCRATCH/505734/C1572-P101

>  <fragmenstein_runtime>  (104) 
8.865508317947388

>  <fragmenstein_outcome>  (104) 
too moved

>  <fragmenstein_mode>  (104) 
expansion

>  <fragmenstein_error>  (104) 


$$$$
C1572-P88
     RDKit          3D

 54 56  0  0  0  0  0  0  0  0999 V2000
  -13.1413  -27.9131   27.2956 C   0  0  0  0  0  0  0  0  0  0  0  0
  -11.9249  -27.2886   27.9458 C   0  0  0  0  0  0  0  0  0  0  0  0
  -10.9511  -27.9901   28.2168 O   0  0  0  0  0  0  0  0  0  0  0  0
  -11.9758  -25.8173   28.3235 C   0  0  0  0  0  0  0  0  0  0  0  0
  -12.6932  -25.8165   29.6751 C   0  0  0  0  0  0  0  0  0  0  0  0
  -11.7579  -26.1588   30.8540 C   0  0  0  0  0  0  0  0  0  0  0  0
  -11.3565  -24.9558   31.5417 N   0  0  0  0  0  0  0  0  0  0  0  0
  -10.2927  -24.7733   32.3713 C   0  0  0  0  0  0  0  0  0  0  0  0
   -9.2209  -25.4615   32.3236 N   0  0  0  0  0  0  0  0  0  0  0  0
   -8.1999  -25.1133   33.3054 C   0  0  0  0  0  0  0  0  0  0  0  0
   -8.1343  -23.6112   33.4735 C   0  0  0  0  0  0  0  0  0  0  0  0
   -9.4532  -23.2184   34.0849 C   0  0  0  0  0  0  0  0  0  0  0  0
  -10.5092  -23.7888   33.2899 N   0  0  0  0  0  0  0  0  0  0  0  0
  -12.6814  -25.0355   27.2044 C   0  0  0  0  0  0  0  0  0  0  0  0
  -12.1522  -23.6006   27.2612 C   0  0  0  0  0  0  0  0  0  0  0  0
  -11.7921  -23.0171   25.9066 C   0  0  0  0  0  0  0  0  0  0  0  0
  -10.6257  -23.6394   25.4018 O   0  0  0  0  0  0  0  0  0  0  0  0
  -10.9737  -23.5865   28.2470 C   0  0  0  0  0  0  0  0  0  0  0  0
  -11.1969  -22.8103   29.5375 C   0  0  0  0  0  0  0  0  0  0  0  0
  -12.4097  -22.3319   30.0207 C   0  0  0  0  0  0  0  0  0  0  0  0
  -12.5361  -21.4406   31.0993 C   0  0  0  0  0  0  0  0  0  0  0  0
  -11.4425  -21.0713   31.8237 C   0  0  0  0  0  0  0  0  0  0  0  0
  -10.2663  -21.6886   31.4822 C   0  0  0  0  0  0  0  0  0  0  0  0
  -10.1301  -22.5450   30.3641 C   0  0  0  0  0  0  0  0  0  0  0  0
  -10.6302  -25.0791   28.3796 C   0  0  0  0  0  0  0  0  0  0  0  0
  -13.2273  -27.5897   26.2569 H   0  0  0  0  0  0  0  0  0  0  0  0
  -14.0511  -27.6532   27.8401 H   0  0  0  0  0  0  0  0  0  0  0  0
  -13.0409  -29.0025   27.3153 H   0  0  0  0  0  0  0  0  0  0  0  0
  -13.5104  -26.5484   29.6818 H   0  0  0  0  0  0  0  0  0  0  0  0
  -13.1822  -24.8580   29.7925 H   0  0  0  0  0  0  0  0  0  0  0  0
  -12.2894  -26.8061   31.5607 H   0  0  0  0  0  0  0  0  0  0  0  0
  -10.9123  -26.7301   30.4972 H   0  0  0  0  0  0  0  0  0  0  0  0
  -12.0523  -24.2205   31.6029 H   0  0  0  0  0  0  0  0  0  0  0  0
   -7.2326  -25.4978   32.9888 H   0  0  0  0  0  0  0  0  0  0  0  0
   -8.4413  -25.6185   34.2461 H   0  0  0  0  0  0  0  0  0  0  0  0
   -7.3212  -23.2844   34.1095 H   0  0  0  0  0  0  0  0  0  0  0  0
   -7.9749  -23.1344   32.5022 H   0  0  0  0  0  0  0  0  0  0  0  0
   -9.5571  -22.1343   34.1508 H   0  0  0  0  0  0  0  0  0  0  0  0
   -9.5169  -23.5898   35.1103 H   0  0  0  0  0  0  0  0  0  0  0  0
  -11.3528  -23.2296   33.2117 H   0  0  0  0  0  0  0  0  0  0  0  0
  -13.7718  -25.0545   27.3213 H   0  0  0  0  0  0  0  0  0  0  0  0
  -12.4605  -25.4684   26.2213 H   0  0  0  0  0  0  0  0  0  0  0  0
  -12.9688  -22.9969   27.5935 H   0  0  0  0  0  0  0  0  0  0  0  0
  -11.5973  -21.9552   26.0183 H   0  0  0  0  0  0  0  0  0  0  0  0
  -12.6154  -23.1277   25.1948 H   0  0  0  0  0  0  0  0  0  0  0  0
  -10.2693  -23.0589   24.7021 H   0  0  0  0  0  0  0  0  0  0  0  0
  -10.1151  -23.0841   27.7814 H   0  0  0  0  0  0  0  0  0  0  0  0
  -13.3197  -22.7404   29.6296 H   0  0  0  0  0  0  0  0  0  0  0  0
  -13.5033  -21.0719   31.4151 H   0  0  0  0  0  0  0  0  0  0  0  0
  -11.5182  -20.4141   32.6826 H   0  0  0  0  0  0  0  0  0  0  0  0
   -9.4079  -21.5151   32.1161 H   0  0  0  0  0  0  0  0  0  0  0  0
   -9.1640  -23.0095   30.1662 H   0  0  0  0  0  0  0  0  0  0  0  0
  -10.0362  -25.4011   27.5192 H   0  0  0  0  0  0  0  0  0  0  0  0
  -10.0083  -25.2728   29.2514 H   0  0  0  0  0  0  0  0  0  0  0  0
  1  2  1  0
  2  3  2  0
  2  4  1  0
  4  5  1  0
  5  6  1  0
  6  7  1  0
  7  8  1  0
  8  9  2  0
  9 10  1  0
 10 11  1  0
 11 12  1  0
 12 13  1  0
  4 14  1  0
 14 15  1  0
 15 16  1  0
 16 17  1  0
 15 18  1  0
 18 19  1  0
 19 20  2  0
 20 21  1  0
 21 22  2  0
 22 23  1  0
 23 24  2  0
 18 25  1  0
 25  4  1  0
 13  8  1  0
 24 19  1  0
  1 26  1  0
  1 27  1  0
  1 28  1  0
  5 29  1  0
  5 30  1  0
  6 31  1  0
  6 32  1  0
  7 33  1  0
 10 34  1  0
 10 35  1  0
 11 36  1  0
 11 37  1  0
 12 38  1  0
 12 39  1  0
 13 40  1  0
 14 41  1  0
 14 42  1  0
 15 43  1  0
 16 44  1  0
 16 45  1  0
 17 46  1  0
 18 47  1  0
 20 48  1  0
 21 49  1  0
 22 50  1  0
 23 51  1  0
 24 52  1  0
 25 53  1  0
 25 54  1  0
M  END
>  <Energy>  (105) 
-43.718688994154235

>  <compound_id>  (105) 
1572

>  <target_id>  (105) 
1

>  <reference_id>  (105) 
88

>  <inspiration_ids>  (105) 
[101, 88]

>  <energy_score>  (105) 
-15.230377902872902

>  <distance_score>  (105) 
3.6071237551164588

>  <path>  (105) 
/opt/xchem-fragalysis-2/maxwin/BulkDock/SCRATCH/505734/C1572-P88/C1572-P88.minimised.mol

>  <scratch_subdir>  (105) 
/opt/xchem-fragalysis-2/maxwin/BulkDock/SCRATCH/505734/C1572-P88

>  <fragmenstein_runtime>  (105) 
8.969298124313354

>  <fragmenstein_outcome>  (105) 
too moved

>  <fragmenstein_mode>  (105) 
expansion

>  <fragmenstein_error>  (105) 


$$$$
C3154-P101
     RDKit          3D

 37 39  0  0  0  0  0  0  0  0999 V2000
  -12.7797  -22.2937   33.0376 C   0  0  0  0  0  0  0  0  0  0  0  0
  -11.9086  -23.1557   32.2795 N   0  0  0  0  0  0  0  0  0  0  0  0
  -11.3546  -24.3295   32.7000 C   0  0  0  0  0  0  0  0  0  0  0  0
  -11.5333  -24.8157   34.0759 C   0  0  0  0  0  0  0  0  0  0  0  0
  -10.4169  -25.6095   34.4520 O   0  0  0  0  0  0  0  0  0  0  0  0
  -10.7856  -24.9778   31.6999 N   0  0  0  0  0  0  0  0  0  0  0  0
  -11.1013  -24.2650   30.5797 C   0  0  0  0  0  0  0  0  0  0  0  0
  -10.9777  -24.5364   29.2038 C   0  0  0  0  0  0  0  0  0  0  0  0
  -10.9848  -25.8780   28.5294 C   0  0  0  0  0  0  0  0  0  0  0  0
   -9.6219  -26.2092   28.1534 N   0  0  0  0  0  0  0  0  0  0  0  0
  -11.9649  -25.8711   27.3268 C   0  0  0  0  0  0  0  0  0  0  0  0
  -11.7298  -26.5506   26.1546 C   0  0  0  0  0  0  0  0  0  0  0  0
  -12.7046  -26.5313   25.1487 C   0  0  0  0  0  0  0  0  0  0  0  0
  -13.9306  -25.9141   25.2803 C   0  0  0  0  0  0  0  0  0  0  0  0
  -14.1764  -25.2041   26.4097 C   0  0  0  0  0  0  0  0  0  0  0  0
  -13.1786  -25.1365   27.3805 C   0  0  0  0  0  0  0  0  0  0  0  0
  -11.0238  -23.4527   28.3188 C   0  0  0  0  0  0  0  0  0  0  0  0
  -11.4819  -22.2370   28.7322 C   0  0  0  0  0  0  0  0  0  0  0  0
  -11.8250  -22.0123   30.0465 C   0  0  0  0  0  0  0  0  0  0  0  0
  -11.6302  -23.0354   30.9520 C   0  0  0  0  0  0  0  0  0  0  0  0
  -13.4940  -21.8166   32.3626 H   0  0  0  0  0  0  0  0  0  0  0  0
  -13.3497  -22.8819   33.7598 H   0  0  0  0  0  0  0  0  0  0  0  0
  -12.1754  -21.5371   33.5389 H   0  0  0  0  0  0  0  0  0  0  0  0
  -12.4507  -25.3821   34.2023 H   0  0  0  0  0  0  0  0  0  0  0  0
  -11.6125  -23.9637   34.7389 H   0  0  0  0  0  0  0  0  0  0  0  0
   -9.9519  -25.8645   33.6194 H   0  0  0  0  0  0  0  0  0  0  0  0
  -11.3046  -26.6469   29.2259 H   0  0  0  0  0  0  0  0  0  0  0  0
   -9.0210  -25.6128   28.7232 H   0  0  0  0  0  0  0  0  0  0  0  0
   -9.4285  -27.1221   28.5563 H   0  0  0  0  0  0  0  0  0  0  0  0
  -10.7914  -27.0716   26.0107 H   0  0  0  0  0  0  0  0  0  0  0  0
  -12.5667  -27.0026   24.1892 H   0  0  0  0  0  0  0  0  0  0  0  0
  -14.6735  -25.9965   24.4958 H   0  0  0  0  0  0  0  0  0  0  0  0
  -15.1411  -24.7300   26.5234 H   0  0  0  0  0  0  0  0  0  0  0  0
  -13.3855  -24.5454   28.2721 H   0  0  0  0  0  0  0  0  0  0  0  0
  -10.8342  -23.5977   27.2571 H   0  0  0  0  0  0  0  0  0  0  0  0
  -11.5827  -21.4800   27.9802 H   0  0  0  0  0  0  0  0  0  0  0  0
  -12.1398  -21.0467   30.3537 H   0  0  0  0  0  0  0  0  0  0  0  0
  1  2  1  0
  2  3  1  0
  3  4  1  0
  4  5  1  0
  3  6  2  0
  6  7  1  0
  7  8  2  0
  8  9  1  0
  9 10  1  0
  9 11  1  0
 11 12  2  0
 12 13  1  0
 13 14  2  0
 14 15  1  0
 15 16  2  0
  8 17  1  0
 17 18  2  0
 18 19  1  0
 19 20  2  0
 20  2  1  0
 20  7  1  0
 16 11  1  0
  1 21  1  0
  1 22  1  0
  1 23  1  0
  4 24  1  0
  4 25  1  0
  5 26  1  0
  9 27  1  0
 10 28  1  0
 10 29  1  0
 12 30  1  0
 13 31  1  0
 14 32  1  0
 15 33  1  0
 16 34  1  0
 17 35  1  0
 18 36  1  0
 19 37  1  0
M  END
>  <Energy>  (106) 
66.746685652263665

>  <compound_id>  (106) 
3154

>  <target_id>  (106) 
1

>  <reference_id>  (106) 
101

>  <inspiration_ids>  (106) 
[101, 94]

>  <energy_score>  (106) 
-3.0490159403253756

>  <distance_score>  (106) 
1.9533439808526882

>  <path>  (106) 
/opt/xchem-fragalysis-2/maxwin/BulkDock/SCRATCH/505734/C3154-P101/C3154-P101.minimised.mol

>  <scratch_subdir>  (106) 
/opt/xchem-fragalysis-2/maxwin/BulkDock/SCRATCH/505734/C3154-P101

>  <fragmenstein_runtime>  (106) 
7.05030369758606

>  <fragmenstein_outcome>  (106) 
too moved

>  <fragmenstein_mode>  (106) 
expansion

>  <fragmenstein_error>  (106) 


$$$$
C3154-P94
     RDKit          3D

 37 39  0  0  0  0  0  0  0  0999 V2000
  -12.6953  -22.1594   32.8605 C   0  0  0  0  0  0  0  0  0  0  0  0
  -11.9025  -23.1283   32.1488 N   0  0  0  0  0  0  0  0  0  0  0  0
  -11.4137  -24.2985   32.6510 C   0  0  0  0  0  0  0  0  0  0  0  0
  -11.5700  -24.6839   34.0422 C   0  0  0  0  0  0  0  0  0  0  0  0
  -10.5544  -25.6405   34.3524 O   0  0  0  0  0  0  0  0  0  0  0  0
  -10.8885  -25.0653   31.7277 N   0  0  0  0  0  0  0  0  0  0  0  0
  -11.0152  -24.3434   30.5823 C   0  0  0  0  0  0  0  0  0  0  0  0
  -10.6911  -24.7109   29.2697 C   0  0  0  0  0  0  0  0  0  0  0  0
  -10.5987  -26.1443   28.8076 C   0  0  0  0  0  0  0  0  0  0  0  0
  -11.1178  -27.0661   29.8199 N   0  0  0  0  0  0  0  0  0  0  0  0
  -11.4463  -26.2708   27.5541 C   0  0  0  0  0  0  0  0  0  0  0  0
  -10.9633  -26.6845   26.3506 C   0  0  0  0  0  0  0  0  0  0  0  0
  -11.7702  -26.5445   25.2363 C   0  0  0  0  0  0  0  0  0  0  0  0
  -13.0640  -26.0486   25.2635 C   0  0  0  0  0  0  0  0  0  0  0  0
  -13.5779  -25.6786   26.4512 C   0  0  0  0  0  0  0  0  0  0  0  0
  -12.7454  -25.7599   27.5490 C   0  0  0  0  0  0  0  0  0  0  0  0
  -10.7319  -23.7032   28.2830 C   0  0  0  0  0  0  0  0  0  0  0  0
  -11.3196  -22.4845   28.5418 C   0  0  0  0  0  0  0  0  0  0  0  0
  -11.7779  -22.1694   29.8112 C   0  0  0  0  0  0  0  0  0  0  0  0
  -11.5910  -23.1022   30.8219 C   0  0  0  0  0  0  0  0  0  0  0  0
  -13.4453  -21.7453   32.1836 H   0  0  0  0  0  0  0  0  0  0  0  0
  -13.2196  -22.6352   33.6915 H   0  0  0  0  0  0  0  0  0  0  0  0
  -12.0336  -21.3707   33.2236 H   0  0  0  0  0  0  0  0  0  0  0  0
  -12.5706  -25.0841   34.1591 H   0  0  0  0  0  0  0  0  0  0  0  0
  -11.4968  -23.8193   34.6932 H   0  0  0  0  0  0  0  0  0  0  0  0
  -10.3167  -26.0631   33.4944 H   0  0  0  0  0  0  0  0  0  0  0  0
   -9.5491  -26.3623   28.5891 H   0  0  0  0  0  0  0  0  0  0  0  0
  -11.9289  -26.6232   30.2579 H   0  0  0  0  0  0  0  0  0  0  0  0
  -10.4435  -27.0489   30.5955 H   0  0  0  0  0  0  0  0  0  0  0  0
  -10.0000  -27.1496   26.2346 H   0  0  0  0  0  0  0  0  0  0  0  0
  -11.5091  -27.1026   24.3646 H   0  0  0  0  0  0  0  0  0  0  0  0
  -13.7043  -26.0969   24.3927 H   0  0  0  0  0  0  0  0  0  0  0  0
  -14.5884  -25.3208   26.4869 H   0  0  0  0  0  0  0  0  0  0  0  0
  -13.0190  -25.2438   28.4392 H   0  0  0  0  0  0  0  0  0  0  0  0
  -10.4524  -23.9226   27.2546 H   0  0  0  0  0  0  0  0  0  0  0  0
  -11.4515  -21.7937   27.7191 H   0  0  0  0  0  0  0  0  0  0  0  0
  -12.2217  -21.2151   29.9845 H   0  0  0  0  0  0  0  0  0  0  0  0
  1  2  1  0
  2  3  1  0
  3  4  1  0
  4  5  1  0
  3  6  2  0
  6  7  1  0
  7  8  2  0
  8  9  1  0
  9 10  1  0
  9 11  1  0
 11 12  2  0
 12 13  1  0
 13 14  2  0
 14 15  1  0
 15 16  2  0
  8 17  1  0
 17 18  2  0
 18 19  1  0
 19 20  2  0
 20  2  1  0
 20  7  1  0
 16 11  1  0
  1 21  1  0
  1 22  1  0
  1 23  1  0
  4 24  1  0
  4 25  1  0
  5 26  1  0
  9 27  1  0
 10 28  1  0
 10 29  1  0
 12 30  1  0
 13 31  1  0
 14 32  1  0
 15 33  1  0
 16 34  1  0
 17 35  1  0
 18 36  1  0
 19 37  1  0
M  END
>  <Energy>  (107) 
67.35335369945696

>  <compound_id>  (107) 
3154

>  <target_id>  (107) 
1

>  <reference_id>  (107) 
94

>  <inspiration_ids>  (107) 
[101, 94]

>  <energy_score>  (107) 
-2.4423478931321654

>  <distance_score>  (107) 
1.7560950927932275

>  <path>  (107) 
/opt/xchem-fragalysis-2/maxwin/BulkDock/SCRATCH/505734/C3154-P94/C3154-P94.minimised.mol

>  <scratch_subdir>  (107) 
/opt/xchem-fragalysis-2/maxwin/BulkDock/SCRATCH/505734/C3154-P94

>  <fragmenstein_runtime>  (107) 
6.656179428100586

>  <fragmenstein_outcome>  (107) 
too moved

>  <fragmenstein_mode>  (107) 
expansion

>  <fragmenstein_error>  (107) 


$$$$
C1520-P101
     RDKit          3D

 29 30  0  0  0  0  0  0  0  0999 V2000
  -17.7235  -28.0282   26.3662 N   0  0  0  0  0  0  0  0  0  0  0  0
  -16.4771  -27.4193   26.7893 C   0  0  0  0  0  0  0  0  0  0  0  0
  -15.5743  -27.8633   27.4345 O   0  0  0  0  0  0  0  0  0  0  0  0
  -16.3881  -25.9912   26.2592 C   0  0  0  0  0  0  0  0  0  0  0  0
  -15.1460  -25.1511   26.6385 C   0  0  0  0  0  0  0  0  0  0  0  0
  -13.7372  -25.4882   26.5705 N   0  0  0  0  0  0  0  0  0  0  0  0
  -13.1827  -26.3834   25.7155 C   0  0  0  0  0  0  0  0  0  0  0  0
  -13.9588  -27.1344   24.7476 C   0  0  0  0  0  0  0  0  0  0  0  0
  -14.7699  -26.2874   23.9528 O   0  0  0  0  0  0  0  0  0  0  0  0
  -11.8954  -26.5673   25.9193 N   0  0  0  0  0  0  0  0  0  0  0  0
  -11.6140  -25.8417   27.0343 C   0  0  0  0  0  0  0  0  0  0  0  0
  -10.4594  -25.8672   27.8284 C   0  0  0  0  0  0  0  0  0  0  0  0
  -10.3893  -25.0691   28.9633 C   0  0  0  0  0  0  0  0  0  0  0  0
  -11.4343  -24.2122   29.2671 C   0  0  0  0  0  0  0  0  0  0  0  0
  -12.5926  -24.1710   28.4846 C   0  0  0  0  0  0  0  0  0  0  0  0
  -12.6993  -25.0414   27.3892 C   0  0  0  0  0  0  0  0  0  0  0  0
  -18.2135  -27.3825   25.7192 H   0  0  0  0  0  0  0  0  0  0  0  0
  -18.3184  -27.3063   25.9186 H   0  0  0  0  0  0  0  0  0  0  0  0
  -17.2565  -25.4559   26.6707 H   0  0  0  0  0  0  0  0  0  0  0  0
  -16.5585  -25.9981   25.1817 H   0  0  0  0  0  0  0  0  0  0  0  0
  -15.2249  -24.2426   26.0310 H   0  0  0  0  0  0  0  0  0  0  0  0
  -15.3248  -24.9342   27.6874 H   0  0  0  0  0  0  0  0  0  0  0  0
  -14.5471  -27.9406   25.1809 H   0  0  0  0  0  0  0  0  0  0  0  0
  -13.2086  -27.5565   24.1150 H   0  0  0  0  0  0  0  0  0  0  0  0
  -14.2029  -25.6303   23.5113 H   0  0  0  0  0  0  0  0  0  0  0  0
   -9.6546  -26.5508   27.5955 H   0  0  0  0  0  0  0  0  0  0  0  0
   -9.5343  -25.1434   29.6276 H   0  0  0  0  0  0  0  0  0  0  0  0
  -11.4017  -23.6290   30.1853 H   0  0  0  0  0  0  0  0  0  0  0  0
  -13.4106  -23.5884   28.8710 H   0  0  0  0  0  0  0  0  0  0  0  0
  1  2  1  0
  2  3  2  0
  2  4  1  0
  4  5  1  0
  5  6  1  0
  6  7  1  0
  7  8  1  0
  8  9  1  0
  7 10  2  0
 10 11  1  0
 11 12  2  0
 12 13  1  0
 13 14  2  0
 14 15  1  0
 15 16  2  0
 16  6  1  0
 16 11  1  0
  1 17  1  0
  1 18  1  0
  4 19  1  0
  4 20  1  0
  5 21  1  0
  5 22  1  0
  8 23  1  0
  8 24  1  0
  9 25  1  0
 12 26  1  0
 13 27  1  0
 14 28  1  0
 15 29  1  0
M  END
>  <Energy>  (108) 
185.35821023107511

>  <compound_id>  (108) 
1520

>  <target_id>  (108) 
1

>  <reference_id>  (108) 
101

>  <inspiration_ids>  (108) 
[101, 110]

>  <energy_score>  (108) 
184.18583891055522

>  <distance_score>  (108) 
2.3295377360621012

>  <path>  (108) 
/opt/xchem-fragalysis-2/maxwin/BulkDock/SCRATCH/505734/C1520-P101/C1520-P101.minimised.mol

>  <scratch_subdir>  (108) 
/opt/xchem-fragalysis-2/maxwin/BulkDock/SCRATCH/505734/C1520-P101

>  <fragmenstein_runtime>  (108) 
4.0263752937316895

>  <fragmenstein_outcome>  (108) 
too moved

>  <fragmenstein_mode>  (108) 
expansion

>  <fragmenstein_error>  (108) 


$$$$
C1520-P110
     RDKit          3D

 29 30  0  0  0  0  0  0  0  0999 V2000
  -14.4928  -22.6040   24.7577 N   0  0  0  0  0  0  0  0  0  0  0  0
  -14.0042  -23.9406   24.9913 C   0  0  0  0  0  0  0  0  0  0  0  0
  -14.4629  -25.0044   24.6820 O   0  0  0  0  0  0  0  0  0  0  0  0
  -12.6139  -23.9212   25.6660 C   0  0  0  0  0  0  0  0  0  0  0  0
  -12.7106  -24.3833   27.1021 C   0  0  0  0  0  0  0  0  0  0  0  0
  -11.5649  -25.0288   27.7087 N   0  0  0  0  0  0  0  0  0  0  0  0
  -10.9672  -26.1929   27.2871 C   0  0  0  0  0  0  0  0  0  0  0  0
  -11.0817  -26.7631   25.9311 C   0  0  0  0  0  0  0  0  0  0  0  0
  -12.4491  -26.9393   25.6302 O   0  0  0  0  0  0  0  0  0  0  0  0
  -10.2622  -26.7279   28.2572 N   0  0  0  0  0  0  0  0  0  0  0  0
  -10.4163  -25.9181   29.3410 C   0  0  0  0  0  0  0  0  0  0  0  0
   -9.9623  -26.0957   30.6524 C   0  0  0  0  0  0  0  0  0  0  0  0
  -10.2746  -25.1359   31.6158 C   0  0  0  0  0  0  0  0  0  0  0  0
  -11.0017  -24.0018   31.2663 C   0  0  0  0  0  0  0  0  0  0  0  0
  -11.4279  -23.7870   29.9448 C   0  0  0  0  0  0  0  0  0  0  0  0
  -11.1575  -24.7928   29.0094 C   0  0  0  0  0  0  0  0  0  0  0  0
  -13.8889  -21.9251   25.2764 H   0  0  0  0  0  0  0  0  0  0  0  0
  -13.7685  -21.9174   25.0697 H   0  0  0  0  0  0  0  0  0  0  0  0
  -12.1257  -22.9498   25.6000 H   0  0  0  0  0  0  0  0  0  0  0  0
  -11.9550  -24.5486   25.0789 H   0  0  0  0  0  0  0  0  0  0  0  0
  -12.8571  -23.4893   27.7013 H   0  0  0  0  0  0  0  0  0  0  0  0
  -13.5659  -25.0479   27.2703 H   0  0  0  0  0  0  0  0  0  0  0  0
  -10.6484  -26.0845   25.2040 H   0  0  0  0  0  0  0  0  0  0  0  0
  -10.5582  -27.7124   25.8342 H   0  0  0  0  0  0  0  0  0  0  0  0
  -12.5399  -27.9003   25.4479 H   0  0  0  0  0  0  0  0  0  0  0  0
   -9.4018  -26.9867   30.9159 H   0  0  0  0  0  0  0  0  0  0  0  0
   -9.9483  -25.2894   32.6408 H   0  0  0  0  0  0  0  0  0  0  0  0
  -11.2519  -23.2708   32.0321 H   0  0  0  0  0  0  0  0  0  0  0  0
  -11.9868  -22.8929   29.6962 H   0  0  0  0  0  0  0  0  0  0  0  0
  1  2  1  0
  2  3  2  0
  2  4  1  0
  4  5  1  0
  5  6  1  0
  6  7  1  0
  7  8  1  0
  8  9  1  0
  7 10  2  0
 10 11  1  0
 11 12  2  0
 12 13  1  0
 13 14  2  0
 14 15  1  0
 15 16  2  0
 16  6  1  0
 16 11  1  0
  1 17  1  0
  1 18  1  0
  4 19  1  0
  4 20  1  0
  5 21  1  0
  5 22  1  0
  8 23  1  0
  8 24  1  0
  9 25  1  0
 12 26  1  0
 13 27  1  0
 14 28  1  0
 15 29  1  0
M  END
>  <Energy>  (109) 
181.28075411622652

>  <compound_id>  (109) 
1520

>  <target_id>  (109) 
1

>  <reference_id>  (109) 
110

>  <inspiration_ids>  (109) 
[101, 110]

>  <energy_score>  (109) 
180.10838279570936

>  <distance_score>  (109) 
1.4975436370089228

>  <path>  (109) 
/opt/xchem-fragalysis-2/maxwin/BulkDock/SCRATCH/505734/C1520-P110/C1520-P110.minimised.mol

>  <scratch_subdir>  (109) 
/opt/xchem-fragalysis-2/maxwin/BulkDock/SCRATCH/505734/C1520-P110

>  <fragmenstein_runtime>  (109) 
3.21955943107605

>  <fragmenstein_outcome>  (109) 
too moved

>  <fragmenstein_mode>  (109) 
expansion

>  <fragmenstein_error>  (109) 


$$$$
C3157-P101
     RDKit          3D

 33 34  0  0  0  0  0  0  0  0999 V2000
  -11.4400  -24.7349   33.4020 C   0  0  0  0  0  0  0  0  0  0  0  0
   -9.9854  -24.8266   33.0706 C   0  0  0  0  0  0  0  0  0  0  0  0
   -9.2427  -25.6189   31.6288 S   0  0  0  0  0  0  0  0  0  0  0  0
   -7.8624  -25.3601   31.9326 O   0  0  0  0  0  0  0  0  0  0  0  0
   -9.5939  -26.9508   31.1859 O   0  0  0  0  0  0  0  0  0  0  0  0
   -9.5075  -24.7979   30.2614 N   0  0  0  0  0  0  0  0  0  0  0  0
  -10.7697  -24.3073   29.9747 C   0  0  0  0  0  0  0  0  0  0  0  0
  -11.2581  -23.2851   30.8203 C   0  0  0  0  0  0  0  0  0  0  0  0
  -12.4616  -22.7198   30.6406 C   0  0  0  0  0  0  0  0  0  0  0  0
  -13.1196  -23.1894   29.5481 C   0  0  0  0  0  0  0  0  0  0  0  0
  -12.6266  -24.0201   28.5504 C   0  0  0  0  0  0  0  0  0  0  0  0
  -13.2216  -24.4990   27.4239 N   0  0  0  0  0  0  0  0  0  0  0  0
  -12.3410  -25.3004   26.8861 C   0  0  0  0  0  0  0  0  0  0  0  0
  -12.5910  -26.0505   25.6447 C   0  0  0  0  0  0  0  0  0  0  0  0
  -13.2000  -27.2765   26.0183 O   0  0  0  0  0  0  0  0  0  0  0  0
  -11.2672  -25.4569   27.7305 N   0  0  0  0  0  0  0  0  0  0  0  0
  -10.3937  -26.5834   27.7193 C   0  0  0  0  0  0  0  0  0  0  0  0
  -11.4119  -24.5996   28.7822 C   0  0  0  0  0  0  0  0  0  0  0  0
  -12.0858  -24.8455   32.5479 H   0  0  0  0  0  0  0  0  0  0  0  0
  -11.6771  -23.7622   33.8462 H   0  0  0  0  0  0  0  0  0  0  0  0
  -11.6923  -25.4705   34.1699 H   0  0  0  0  0  0  0  0  0  0  0  0
   -9.5615  -23.8167   33.0371 H   0  0  0  0  0  0  0  0  0  0  0  0
   -9.4994  -25.2554   33.9483 H   0  0  0  0  0  0  0  0  0  0  0  0
   -9.0434  -25.2821   29.5092 H   0  0  0  0  0  0  0  0  0  0  0  0
  -10.6966  -22.9067   31.6604 H   0  0  0  0  0  0  0  0  0  0  0  0
  -12.9090  -22.0660   31.3733 H   0  0  0  0  0  0  0  0  0  0  0  0
  -14.1562  -23.0565   29.5718 H   0  0  0  0  0  0  0  0  0  0  0  0
  -13.2954  -25.5104   25.0070 H   0  0  0  0  0  0  0  0  0  0  0  0
  -11.6768  -26.2388   25.0803 H   0  0  0  0  0  0  0  0  0  0  0  0
  -14.0058  -27.0171   26.5027 H   0  0  0  0  0  0  0  0  0  0  0  0
  -10.4241  -27.0507   26.7360 H   0  0  0  0  0  0  0  0  0  0  0  0
   -9.3745  -26.2809   27.9267 H   0  0  0  0  0  0  0  0  0  0  0  0
  -10.7612  -27.2592   28.4917 H   0  0  0  0  0  0  0  0  0  0  0  0
  1  2  1  0
  2  3  1  0
  3  4  2  0
  3  5  2  0
  3  6  1  0
  6  7  1  0
  7  8  2  0
  8  9  1  0
  9 10  2  0
 10 11  1  0
 11 12  1  0
 12 13  2  0
 13 14  1  0
 14 15  1  0
 13 16  1  0
 16 17  1  0
 16 18  1  0
 18  7  1  0
 18 11  2  0
  1 19  1  0
  1 20  1  0
  1 21  1  0
  2 22  1  0
  2 23  1  0
  6 24  1  0
  8 25  1  0
  9 26  1  0
 10 27  1  0
 14 28  1  0
 14 29  1  0
 15 30  1  0
 17 31  1  0
 17 32  1  0
 17 33  1  0
M  END
>  <Energy>  (110) 
16.255090249808696

>  <compound_id>  (110) 
3157

>  <target_id>  (110) 
1

>  <reference_id>  (110) 
101

>  <inspiration_ids>  (110) 
[101, 115]

>  <energy_score>  (110) 
18.575179244153162

>  <distance_score>  (110) 
1.2429781822771606

>  <path>  (110) 
/opt/xchem-fragalysis-2/maxwin/BulkDock/SCRATCH/505734/C3157-P101/C3157-P101.minimised.mol

>  <scratch_subdir>  (110) 
/opt/xchem-fragalysis-2/maxwin/BulkDock/SCRATCH/505734/C3157-P101

>  <fragmenstein_runtime>  (110) 
4.247631072998047

>  <fragmenstein_outcome>  (110) 
too moved

>  <fragmenstein_mode>  (110) 
expansion

>  <fragmenstein_error>  (110) 


$$$$
C3157-P115
     RDKit          3D

 33 34  0  0  0  0  0  0  0  0999 V2000
  -12.3147  -27.9138   29.9096 C   0  0  0  0  0  0  0  0  0  0  0  0
  -11.7123  -26.6975   30.5877 C   0  0  0  0  0  0  0  0  0  0  0  0
  -10.1948  -26.6642   31.5252 S   0  0  0  0  0  0  0  0  0  0  0  0
  -10.4524  -26.1886   32.8685 O   0  0  0  0  0  0  0  0  0  0  0  0
   -9.4119  -27.8464   31.3329 O   0  0  0  0  0  0  0  0  0  0  0  0
   -9.4579  -25.3936   30.7535 N   0  0  0  0  0  0  0  0  0  0  0  0
  -10.4076  -24.4141   30.3225 C   0  0  0  0  0  0  0  0  0  0  0  0
  -11.0338  -23.5437   31.2335 C   0  0  0  0  0  0  0  0  0  0  0  0
  -11.6801  -22.4093   30.7525 C   0  0  0  0  0  0  0  0  0  0  0  0
  -11.7912  -22.1817   29.3704 C   0  0  0  0  0  0  0  0  0  0  0  0
  -11.4076  -23.1892   28.4672 C   0  0  0  0  0  0  0  0  0  0  0  0
  -11.6859  -23.3674   27.1352 N   0  0  0  0  0  0  0  0  0  0  0  0
  -11.4164  -24.6386   26.9002 C   0  0  0  0  0  0  0  0  0  0  0  0
  -12.2344  -25.5155   26.0193 C   0  0  0  0  0  0  0  0  0  0  0  0
  -11.4223  -26.4097   25.2762 O   0  0  0  0  0  0  0  0  0  0  0  0
  -10.5247  -25.0710   27.8486 N   0  0  0  0  0  0  0  0  0  0  0  0
   -9.8115  -26.3033   27.8753 C   0  0  0  0  0  0  0  0  0  0  0  0
  -10.7090  -24.2762   28.9534 C   0  0  0  0  0  0  0  0  0  0  0  0
  -11.8681  -28.0888   28.9323 H   0  0  0  0  0  0  0  0  0  0  0  0
  -13.3545  -27.7241   29.6112 H   0  0  0  0  0  0  0  0  0  0  0  0
  -12.3098  -28.8190   30.5139 H   0  0  0  0  0  0  0  0  0  0  0  0
  -11.7725  -26.0286   29.7586 H   0  0  0  0  0  0  0  0  0  0  0  0
  -12.3146  -26.1635   31.3010 H   0  0  0  0  0  0  0  0  0  0  0  0
   -8.8215  -24.9926   31.4502 H   0  0  0  0  0  0  0  0  0  0  0  0
  -10.8910  -23.6547   32.3070 H   0  0  0  0  0  0  0  0  0  0  0  0
  -12.0375  -21.6659   31.4579 H   0  0  0  0  0  0  0  0  0  0  0  0
  -12.2519  -21.2797   28.9989 H   0  0  0  0  0  0  0  0  0  0  0  0
  -12.9240  -26.0946   26.6445 H   0  0  0  0  0  0  0  0  0  0  0  0
  -12.8389  -24.9165   25.3359 H   0  0  0  0  0  0  0  0  0  0  0  0
  -11.8922  -27.2714   25.2948 H   0  0  0  0  0  0  0  0  0  0  0  0
  -10.2909  -26.9662   28.5690 H   0  0  0  0  0  0  0  0  0  0  0  0
   -9.8144  -26.7727   26.9007 H   0  0  0  0  0  0  0  0  0  0  0  0
   -8.8018  -26.1327   28.2327 H   0  0  0  0  0  0  0  0  0  0  0  0
  1  2  1  0
  2  3  1  0
  3  4  2  0
  3  5  2  0
  3  6  1  0
  6  7  1  0
  7  8  2  0
  8  9  1  0
  9 10  2  0
 10 11  1  0
 11 12  1  0
 12 13  2  0
 13 14  1  0
 14 15  1  0
 13 16  1  0
 16 17  1  0
 16 18  1  0
 18  7  1  0
 18 11  2  0
  1 19  1  0
  1 20  1  0
  1 21  1  0
  2 22  1  0
  2 23  1  0
  6 24  1  0
  8 25  1  0
  9 26  1  0
 10 27  1  0
 14 28  1  0
 14 29  1  0
 15 30  1  0
 17 31  1  0
 17 32  1  0
 17 33  1  0
M  END
>  <Energy>  (111) 
23.397550579804005

>  <compound_id>  (111) 
3157

>  <target_id>  (111) 
1

>  <reference_id>  (111) 
115

>  <inspiration_ids>  (111) 
[101, 115]

>  <energy_score>  (111) 
19.889036982972286

>  <distance_score>  (111) 
1.4715308640036422

>  <path>  (111) 
/opt/xchem-fragalysis-2/maxwin/BulkDock/SCRATCH/505734/C3157-P115/C3157-P115.minimised.mol

>  <scratch_subdir>  (111) 
/opt/xchem-fragalysis-2/maxwin/BulkDock/SCRATCH/505734/C3157-P115

>  <fragmenstein_runtime>  (111) 
1.9187109470367432

>  <fragmenstein_outcome>  (111) 
too moved

>  <fragmenstein_mode>  (111) 
expansion

>  <fragmenstein_error>  (111) 


$$$$
C3158-P101
     RDKit          3D

 44 46  0  0  0  0  0  0  0  0999 V2000
   -9.5421  -24.5512   32.2841 C   0  0  0  0  0  0  0  0  0  0  0  0
  -10.9480  -24.5885   31.8090 C   0  0  0  0  0  0  0  0  0  0  0  0
  -11.8088  -24.7434   32.6678 O   0  0  0  0  0  0  0  0  0  0  0  0
  -11.1578  -24.5455   30.4520 N   0  0  0  0  0  0  0  0  0  0  0  0
  -11.4238  -23.3384   29.7924 C   0  0  0  0  0  0  0  0  0  0  0  0
  -11.0976  -23.7182   28.3331 C   0  0  0  0  0  0  0  0  0  0  0  0
  -11.5090  -22.5417   27.5707 C   0  0  0  0  0  0  0  0  0  0  0  0
  -11.7402  -22.9771   26.2514 O   0  0  0  0  0  0  0  0  0  0  0  0
  -11.8997  -25.0555   28.1532 C   0  0  0  0  0  0  0  0  0  0  0  0
  -13.4188  -24.6309   28.0391 C   0  0  0  0  0  0  0  0  0  0  0  0
  -14.4842  -25.1808   26.9236 C   0  0  0  0  0  0  0  0  0  0  0  0
  -13.8160  -25.1161   25.5700 C   0  0  0  0  0  0  0  0  0  0  0  0
  -12.7182  -26.0375   25.8515 C   0  0  0  0  0  0  0  0  0  0  0  0
  -13.0557  -27.3531   25.6401 N   0  0  0  0  0  0  0  0  0  0  0  0
  -12.4733  -27.9962   26.6344 C   0  0  0  0  0  0  0  0  0  0  0  0
  -12.7987  -29.3770   27.1049 C   0  0  0  0  0  0  0  0  0  0  0  0
  -13.2830  -29.3036   28.4393 O   0  0  0  0  0  0  0  0  0  0  0  0
  -11.3596  -27.2344   26.9471 N   0  0  0  0  0  0  0  0  0  0  0  0
  -10.1725  -27.2984   26.1296 C   0  0  0  0  0  0  0  0  0  0  0  0
  -11.8347  -25.9425   26.9482 C   0  0  0  0  0  0  0  0  0  0  0  0
  -11.1587  -25.6350   29.4515 C   0  0  0  0  0  0  0  0  0  0  0  0
   -9.2845  -23.5528   32.6149 H   0  0  0  0  0  0  0  0  0  0  0  0
   -9.4862  -25.1611   33.1841 H   0  0  0  0  0  0  0  0  0  0  0  0
   -8.8651  -24.9670   31.5417 H   0  0  0  0  0  0  0  0  0  0  0  0
  -11.0089  -22.4403   30.2494 H   0  0  0  0  0  0  0  0  0  0  0  0
  -12.4970  -23.1547   29.9361 H   0  0  0  0  0  0  0  0  0  0  0  0
  -10.0292  -23.8989   28.1499 H   0  0  0  0  0  0  0  0  0  0  0  0
  -10.8176  -21.7242   27.6634 H   0  0  0  0  0  0  0  0  0  0  0  0
  -12.3794  -22.1236   28.0604 H   0  0  0  0  0  0  0  0  0  0  0  0
  -12.3713  -22.3196   25.8842 H   0  0  0  0  0  0  0  0  0  0  0  0
  -13.2846  -23.6773   27.5974 H   0  0  0  0  0  0  0  0  0  0  0  0
  -13.8938  -24.3898   28.9749 H   0  0  0  0  0  0  0  0  0  0  0  0
  -15.4337  -24.6483   26.8789 H   0  0  0  0  0  0  0  0  0  0  0  0
  -14.8163  -26.2124   27.0902 H   0  0  0  0  0  0  0  0  0  0  0  0
  -14.4820  -25.5011   24.7901 H   0  0  0  0  0  0  0  0  0  0  0  0
  -13.5121  -24.1156   25.2737 H   0  0  0  0  0  0  0  0  0  0  0  0
  -13.5882  -29.8045   26.4774 H   0  0  0  0  0  0  0  0  0  0  0  0
  -11.9425  -30.0510   27.0970 H   0  0  0  0  0  0  0  0  0  0  0  0
  -13.8146  -30.1088   28.5789 H   0  0  0  0  0  0  0  0  0  0  0  0
   -9.9164  -28.2626   25.7039 H   0  0  0  0  0  0  0  0  0  0  0  0
  -10.3606  -26.6782   25.2518 H   0  0  0  0  0  0  0  0  0  0  0  0
   -9.3927  -26.9754   26.8157 H   0  0  0  0  0  0  0  0  0  0  0  0
  -10.0893  -25.7424   29.1917 H   0  0  0  0  0  0  0  0  0  0  0  0
  -11.3280  -26.6457   29.7634 H   0  0  0  0  0  0  0  0  0  0  0  0
  1  2  1  0
  2  3  2  0
  2  4  1  0
  4  5  1  0
  5  6  1  0
  6  7  1  0
  7  8  1  0
  6  9  1  0
  9 10  1  0
 10 11  1  0
 11 12  1  0
 12 13  1  0
 13 14  1  0
 14 15  2  0
 15 16  1  0
 16 17  1  0
 15 18  1  0
 18 19  1  0
 18 20  1  0
  9 21  1  0
 21  4  1  0
 20  9  1  0
 20 13  2  0
  1 22  1  0
  1 23  1  0
  1 24  1  0
  5 25  1  0
  5 26  1  0
  6 27  1  0
  7 28  1  0
  7 29  1  0
  8 30  1  0
 10 31  1  0
 10 32  1  0
 11 33  1  0
 11 34  1  0
 12 35  1  0
 12 36  1  0
 16 37  1  0
 16 38  1  0
 17 39  1  0
 19 40  1  0
 19 41  1  0
 19 42  1  0
 21 43  1  0
 21 44  1  0
M  END
>  <Energy>  (112) 
198.5172373661147

>  <compound_id>  (112) 
3158

>  <target_id>  (112) 
1

>  <reference_id>  (112) 
101

>  <inspiration_ids>  (112) 
[101, 119]

>  <energy_score>  (112) 
113.22097059023054

>  <distance_score>  (112) 
2.429585080214936

>  <path>  (112) 
/opt/xchem-fragalysis-2/maxwin/BulkDock/SCRATCH/505734/C3158-P101/C3158-P101.minimised.mol

>  <scratch_subdir>  (112) 
/opt/xchem-fragalysis-2/maxwin/BulkDock/SCRATCH/505734/C3158-P101

>  <fragmenstein_runtime>  (112) 
7.520630836486816

>  <fragmenstein_outcome>  (112) 
too moved

>  <fragmenstein_mode>  (112) 
expansion

>  <fragmenstein_error>  (112) 


$$$$
C3158-P119
     RDKit          3D

 44 46  0  0  0  0  0  0  0  0999 V2000
   -9.2441  -23.0086   33.3822 C   0  0  0  0  0  0  0  0  0  0  0  0
  -10.6337  -23.0798   32.8123 C   0  0  0  0  0  0  0  0  0  0  0  0
  -11.6304  -22.8496   33.4860 O   0  0  0  0  0  0  0  0  0  0  0  0
  -10.6367  -23.3265   31.4687 N   0  0  0  0  0  0  0  0  0  0  0  0
  -10.5107  -22.2590   30.5814 C   0  0  0  0  0  0  0  0  0  0  0  0
   -9.9708  -23.0356   29.3742 C   0  0  0  0  0  0  0  0  0  0  0  0
   -9.6871  -22.1217   28.2647 C   0  0  0  0  0  0  0  0  0  0  0  0
   -9.4886  -22.9217   27.1409 O   0  0  0  0  0  0  0  0  0  0  0  0
  -11.0199  -24.1875   29.2421 C   0  0  0  0  0  0  0  0  0  0  0  0
  -12.3464  -23.4945   28.7345 C   0  0  0  0  0  0  0  0  0  0  0  0
  -12.3380  -23.0063   27.2533 C   0  0  0  0  0  0  0  0  0  0  0  0
  -11.7067  -23.9146   26.2395 C   0  0  0  0  0  0  0  0  0  0  0  0
  -11.3958  -25.2048   26.8770 C   0  0  0  0  0  0  0  0  0  0  0  0
  -12.1654  -26.2161   26.4020 N   0  0  0  0  0  0  0  0  0  0  0  0
  -12.5584  -26.8357   27.4878 C   0  0  0  0  0  0  0  0  0  0  0  0
  -13.7566  -27.7205   27.5895 C   0  0  0  0  0  0  0  0  0  0  0  0
  -14.6098  -27.1463   28.5716 O   0  0  0  0  0  0  0  0  0  0  0  0
  -11.5862  -26.6499   28.4490 N   0  0  0  0  0  0  0  0  0  0  0  0
  -11.3487  -27.6390   29.4607 C   0  0  0  0  0  0  0  0  0  0  0  0
  -11.0149  -25.3881   28.2276 C   0  0  0  0  0  0  0  0  0  0  0  0
  -10.7544  -24.5861   30.7430 C   0  0  0  0  0  0  0  0  0  0  0  0
   -8.8962  -21.9735   33.3384 H   0  0  0  0  0  0  0  0  0  0  0  0
   -9.2545  -23.3411   34.4212 H   0  0  0  0  0  0  0  0  0  0  0  0
   -8.5562  -23.6240   32.7980 H   0  0  0  0  0  0  0  0  0  0  0  0
  -11.4713  -21.7628   30.4352 H   0  0  0  0  0  0  0  0  0  0  0  0
   -9.9410  -21.5264   31.1266 H   0  0  0  0  0  0  0  0  0  0  0  0
   -8.9935  -23.4925   29.6156 H   0  0  0  0  0  0  0  0  0  0  0  0
   -8.7416  -21.6166   28.4403 H   0  0  0  0  0  0  0  0  0  0  0  0
  -10.4321  -21.3392   28.1131 H   0  0  0  0  0  0  0  0  0  0  0  0
   -9.2781  -23.8238   27.4309 H   0  0  0  0  0  0  0  0  0  0  0  0
  -13.1471  -24.2353   28.7442 H   0  0  0  0  0  0  0  0  0  0  0  0
  -12.6868  -22.6648   29.3467 H   0  0  0  0  0  0  0  0  0  0  0  0
  -11.9704  -21.9905   27.1503 H   0  0  0  0  0  0  0  0  0  0  0  0
  -13.3641  -22.9717   26.8875 H   0  0  0  0  0  0  0  0  0  0  0  0
  -10.9025  -23.4894   25.6408 H   0  0  0  0  0  0  0  0  0  0  0  0
  -12.5218  -24.0701   25.5275 H   0  0  0  0  0  0  0  0  0  0  0  0
  -13.5077  -28.7420   27.8878 H   0  0  0  0  0  0  0  0  0  0  0  0
  -14.2921  -27.7446   26.6346 H   0  0  0  0  0  0  0  0  0  0  0  0
  -15.5013  -27.4982   28.3994 H   0  0  0  0  0  0  0  0  0  0  0  0
  -12.2712  -28.1541   29.7338 H   0  0  0  0  0  0  0  0  0  0  0  0
  -10.6740  -28.3901   29.0461 H   0  0  0  0  0  0  0  0  0  0  0  0
  -10.9406  -27.1618   30.3377 H   0  0  0  0  0  0  0  0  0  0  0  0
   -9.7618  -25.0590   30.8150 H   0  0  0  0  0  0  0  0  0  0  0  0
  -11.3615  -25.3134   31.2062 H   0  0  0  0  0  0  0  0  0  0  0  0
  1  2  1  0
  2  3  2  0
  2  4  1  0
  4  5  1  0
  5  6  1  0
  6  7  1  0
  7  8  1  0
  6  9  1  0
  9 10  1  0
 10 11  1  0
 11 12  1  0
 12 13  1  0
 13 14  1  0
 14 15  2  0
 15 16  1  0
 16 17  1  0
 15 18  1  0
 18 19  1  0
 18 20  1  0
  9 21  1  0
 21  4  1  0
 20  9  1  0
 20 13  2  0
  1 22  1  0
  1 23  1  0
  1 24  1  0
  5 25  1  0
  5 26  1  0
  6 27  1  0
  7 28  1  0
  7 29  1  0
  8 30  1  0
 10 31  1  0
 10 32  1  0
 11 33  1  0
 11 34  1  0
 12 35  1  0
 12 36  1  0
 16 37  1  0
 16 38  1  0
 17 39  1  0
 19 40  1  0
 19 41  1  0
 19 42  1  0
 21 43  1  0
 21 44  1  0
M  END
>  <Energy>  (113) 
158.68712901060704

>  <compound_id>  (113) 
3158

>  <target_id>  (113) 
1

>  <reference_id>  (113) 
119

>  <inspiration_ids>  (113) 
[101, 119]

>  <energy_score>  (113) 
73.39086223472248

>  <distance_score>  (113) 
1.776984211751699

>  <path>  (113) 
/opt/xchem-fragalysis-2/maxwin/BulkDock/SCRATCH/505734/C3158-P119/C3158-P119.minimised.mol

>  <scratch_subdir>  (113) 
/opt/xchem-fragalysis-2/maxwin/BulkDock/SCRATCH/505734/C3158-P119

>  <fragmenstein_runtime>  (113) 
5.899303674697876

>  <fragmenstein_outcome>  (113) 
too moved

>  <fragmenstein_mode>  (113) 
expansion

>  <fragmenstein_error>  (113) 


$$$$
C3159-P101
     RDKit          3D

 29 30  0  0  0  0  0  0  0  0999 V2000
  -11.6342  -23.0181   27.9102 C   0  0  0  0  0  0  0  0  0  0  0  0
  -11.8393  -24.3956   28.3242 N   0  0  0  0  0  0  0  0  0  0  0  0
  -10.9525  -25.3087   27.5588 C   0  0  0  0  0  0  0  0  0  0  0  0
  -11.7398  -26.2568   26.6324 C   0  0  0  0  0  0  0  0  0  0  0  0
  -12.5909  -25.5491   25.7339 O   0  0  0  0  0  0  0  0  0  0  0  0
  -10.1238  -26.0521   28.5308 N   0  0  0  0  0  0  0  0  0  0  0  0
   -9.9813  -25.0651   29.6240 C   0  0  0  0  0  0  0  0  0  0  0  0
   -9.4988  -25.5372   30.9860 C   0  0  0  0  0  0  0  0  0  0  0  0
   -9.9033  -24.7059   32.2156 C   0  0  0  0  0  0  0  0  0  0  0  0
  -11.2349  -23.9986   32.2172 C   0  0  0  0  0  0  0  0  0  0  0  0
  -11.6994  -23.5897   30.8523 C   0  0  0  0  0  0  0  0  0  0  0  0
  -12.4067  -22.5899   30.7646 O   0  0  0  0  0  0  0  0  0  0  0  0
  -11.3793  -24.5653   29.7233 C   0  0  0  0  0  0  0  0  0  0  0  0
  -10.6477  -22.6415   28.1702 H   0  0  0  0  0  0  0  0  0  0  0  0
  -12.3606  -22.3728   28.3959 H   0  0  0  0  0  0  0  0  0  0  0  0
  -11.7712  -22.9340   26.8317 H   0  0  0  0  0  0  0  0  0  0  0  0
  -10.2787  -24.7189   26.9263 H   0  0  0  0  0  0  0  0  0  0  0  0
  -12.3555  -26.9609   27.1943 H   0  0  0  0  0  0  0  0  0  0  0  0
  -11.0407  -26.8448   26.0319 H   0  0  0  0  0  0  0  0  0  0  0  0
  -12.9557  -24.8085   26.2621 H   0  0  0  0  0  0  0  0  0  0  0  0
  -10.6717  -26.8320   28.8943 H   0  0  0  0  0  0  0  0  0  0  0  0
   -9.2875  -24.3592   29.2022 H   0  0  0  0  0  0  0  0  0  0  0  0
   -9.7311  -26.5948   31.0972 H   0  0  0  0  0  0  0  0  0  0  0  0
   -8.4167  -25.5068   31.0161 H   0  0  0  0  0  0  0  0  0  0  0  0
   -9.8680  -25.3197   33.1179 H   0  0  0  0  0  0  0  0  0  0  0  0
   -9.1237  -23.9641   32.3998 H   0  0  0  0  0  0  0  0  0  0  0  0
  -12.0011  -24.6283   32.6705 H   0  0  0  0  0  0  0  0  0  0  0  0
  -11.1673  -23.1014   32.8418 H   0  0  0  0  0  0  0  0  0  0  0  0
  -11.8725  -25.4432   30.0457 H   0  0  0  0  0  0  0  0  0  0  0  0
  1  2  1  0
  2  3  1  0
  3  4  1  0
  4  5  1  0
  3  6  1  0
  6  7  1  0
  7  8  1  0
  8  9  1  0
  9 10  1  0
 10 11  1  0
 11 12  2  0
 11 13  1  0
 13  2  1  0
 13  7  1  0
  1 14  1  0
  1 15  1  0
  1 16  1  0
  3 17  1  0
  4 18  1  0
  4 19  1  0
  5 20  1  0
  6 21  1  0
  7 22  1  0
  8 23  1  0
  8 24  1  0
  9 25  1  0
  9 26  1  0
 10 27  1  0
 10 28  1  0
 13 29  1  0
M  END
>  <Energy>  (114) 
81.941387473379805

>  <compound_id>  (114) 
3159

>  <target_id>  (114) 
1

>  <reference_id>  (114) 
101

>  <inspiration_ids>  (114) 
[101, 123]

>  <energy_score>  (114) 
-12.504610990586258

>  <distance_score>  (114) 
1.854891281789708

>  <path>  (114) 
/opt/xchem-fragalysis-2/maxwin/BulkDock/SCRATCH/505734/C3159-P101/C3159-P101.minimised.mol

>  <scratch_subdir>  (114) 
/opt/xchem-fragalysis-2/maxwin/BulkDock/SCRATCH/505734/C3159-P101

>  <fragmenstein_runtime>  (114) 
1.3217589855194092

>  <fragmenstein_outcome>  (114) 
too moved

>  <fragmenstein_mode>  (114) 
expansion

>  <fragmenstein_error>  (114) 


$$$$
C3159-P123
     RDKit          3D

 29 30  0  0  0  0  0  0  0  0999 V2000
  -12.0687  -22.6697   28.1743 C   0  0  0  0  0  0  0  0  0  0  0  0
  -11.3156  -23.8302   28.5488 N   0  0  0  0  0  0  0  0  0  0  0  0
  -11.3098  -24.9406   27.5819 C   0  0  0  0  0  0  0  0  0  0  0  0
  -12.5432  -25.1306   26.6486 C   0  0  0  0  0  0  0  0  0  0  0  0
  -13.7253  -25.5098   27.3708 O   0  0  0  0  0  0  0  0  0  0  0  0
  -11.0949  -26.1661   28.3934 N   0  0  0  0  0  0  0  0  0  0  0  0
  -10.7730  -25.6076   29.7235 C   0  0  0  0  0  0  0  0  0  0  0  0
  -10.9290  -26.5234   30.9124 C   0  0  0  0  0  0  0  0  0  0  0  0
  -10.6163  -25.7286   32.1792 C   0  0  0  0  0  0  0  0  0  0  0  0
  -11.4722  -24.5032   32.3740 C   0  0  0  0  0  0  0  0  0  0  0  0
  -11.5480  -23.6729   31.1320 C   0  0  0  0  0  0  0  0  0  0  0  0
  -11.6056  -22.4541   31.2667 O   0  0  0  0  0  0  0  0  0  0  0  0
  -11.7330  -24.4361   29.8199 C   0  0  0  0  0  0  0  0  0  0  0  0
  -11.7452  -22.3003   27.1984 H   0  0  0  0  0  0  0  0  0  0  0  0
  -11.9281  -21.8467   28.8794 H   0  0  0  0  0  0  0  0  0  0  0  0
  -13.1261  -22.9149   28.1306 H   0  0  0  0  0  0  0  0  0  0  0  0
  -10.4403  -24.7898   26.9376 H   0  0  0  0  0  0  0  0  0  0  0  0
  -12.3335  -25.9302   25.9287 H   0  0  0  0  0  0  0  0  0  0  0  0
  -12.7543  -24.2194   26.0799 H   0  0  0  0  0  0  0  0  0  0  0  0
  -14.4467  -25.5010   26.7160 H   0  0  0  0  0  0  0  0  0  0  0  0
  -12.0131  -26.6099   28.4677 H   0  0  0  0  0  0  0  0  0  0  0  0
   -9.7230  -25.2726   29.7073 H   0  0  0  0  0  0  0  0  0  0  0  0
  -11.9392  -26.9379   30.9584 H   0  0  0  0  0  0  0  0  0  0  0  0
  -10.2336  -27.3620   30.8417 H   0  0  0  0  0  0  0  0  0  0  0  0
  -10.7672  -26.3598   33.0507 H   0  0  0  0  0  0  0  0  0  0  0  0
   -9.5603  -25.4291   32.1630 H   0  0  0  0  0  0  0  0  0  0  0  0
  -12.4845  -24.7687   32.6663 H   0  0  0  0  0  0  0  0  0  0  0  0
  -11.0546  -23.8971   33.1816 H   0  0  0  0  0  0  0  0  0  0  0  0
  -12.7811  -24.7482   29.7817 H   0  0  0  0  0  0  0  0  0  0  0  0
  1  2  1  0
  2  3  1  0
  3  4  1  0
  4  5  1  0
  3  6  1  0
  6  7  1  0
  7  8  1  0
  8  9  1  0
  9 10  1  0
 10 11  1  0
 11 12  2  0
 11 13  1  0
 13  2  1  0
 13  7  1  0
  1 14  1  0
  1 15  1  0
  1 16  1  0
  3 17  1  0
  4 18  1  0
  4 19  1  0
  5 20  1  0
  6 21  1  0
  7 22  1  0
  8 23  1  0
  8 24  1  0
  9 25  1  0
  9 26  1  0
 10 27  1  0
 10 28  1  0
 13 29  1  0
M  END
>  <Energy>  (115) 
66.173660204431954

>  <compound_id>  (115) 
3159

>  <target_id>  (115) 
1

>  <reference_id>  (115) 
123

>  <inspiration_ids>  (115) 
[101, 123]

>  <energy_score>  (115) 
-28.272338259533228

>  <distance_score>  (115) 
1.8488004491534231

>  <path>  (115) 
/opt/xchem-fragalysis-2/maxwin/BulkDock/SCRATCH/505734/C3159-P123/C3159-P123.minimised.mol

>  <scratch_subdir>  (115) 
/opt/xchem-fragalysis-2/maxwin/BulkDock/SCRATCH/505734/C3159-P123

>  <fragmenstein_runtime>  (115) 
1.559664249420166

>  <fragmenstein_outcome>  (115) 
too moved

>  <fragmenstein_mode>  (115) 
expansion

>  <fragmenstein_error>  (115) 


$$$$
C3161-P101
     RDKit          3D

 40 44  0  0  0  0  0  0  0  0999 V2000
  -10.6072  -26.8679   26.4283 O   0  0  0  0  0  0  0  0  0  0  0  0
  -11.5453  -26.8786   27.4909 C   0  0  0  0  0  0  0  0  0  0  0  0
  -11.0054  -26.0578   28.6029 C   0  0  0  0  0  0  0  0  0  0  0  0
   -9.8647  -26.3095   29.2202 N   0  0  0  0  0  0  0  0  0  0  0  0
   -9.9242  -25.5783   30.3869 C   0  0  0  0  0  0  0  0  0  0  0  0
   -9.1414  -25.5030   31.5208 C   0  0  0  0  0  0  0  0  0  0  0  0
   -9.5739  -24.7760   32.6443 C   0  0  0  0  0  0  0  0  0  0  0  0
  -10.6956  -23.9903   32.6285 C   0  0  0  0  0  0  0  0  0  0  0  0
  -11.4046  -23.9104   31.4638 C   0  0  0  0  0  0  0  0  0  0  0  0
  -11.0198  -24.7821   30.4244 C   0  0  0  0  0  0  0  0  0  0  0  0
  -11.6526  -25.0181   29.2467 N   0  0  0  0  0  0  0  0  0  0  0  0
  -12.7284  -24.1633   28.8837 C   0  0  0  0  0  0  0  0  0  0  0  0
  -12.8221  -24.1623   27.5043 C   0  0  0  0  0  0  0  0  0  0  0  0
  -11.9623  -23.2984   26.9322 C   0  0  0  0  0  0  0  0  0  0  0  0
  -11.5229  -22.2539   27.7475 C   0  0  0  0  0  0  0  0  0  0  0  0
  -11.9544  -22.0066   29.0440 C   0  0  0  0  0  0  0  0  0  0  0  0
  -12.6839  -22.9748   29.6884 C   0  0  0  0  0  0  0  0  0  0  0  0
  -12.4950  -22.9023   31.2308 C   0  0  0  0  0  0  0  0  0  0  0  0
  -13.5609  -22.9434   32.2537 N   0  0  0  0  0  0  0  0  0  0  0  0
  -13.3926  -21.8618   33.2572 C   0  0  0  0  0  0  0  0  0  0  0  0
  -14.9128  -21.5957   33.2295 C   0  0  0  0  0  0  0  0  0  0  0  0
  -15.4214  -20.2505   33.0109 O   0  0  0  0  0  0  0  0  0  0  0  0
  -14.8805  -22.4312   31.9600 C   0  0  0  0  0  0  0  0  0  0  0  0
   -9.7445  -26.8418   26.8968 H   0  0  0  0  0  0  0  0  0  0  0  0
  -12.5102  -26.6138   27.0792 H   0  0  0  0  0  0  0  0  0  0  0  0
  -11.6672  -27.9085   27.8329 H   0  0  0  0  0  0  0  0  0  0  0  0
   -8.2574  -26.0957   31.6248 H   0  0  0  0  0  0  0  0  0  0  0  0
   -9.0447  -24.8861   33.5758 H   0  0  0  0  0  0  0  0  0  0  0  0
  -11.0309  -23.4422   33.4946 H   0  0  0  0  0  0  0  0  0  0  0  0
  -13.3367  -24.9072   26.9224 H   0  0  0  0  0  0  0  0  0  0  0  0
  -11.7700  -23.3192   25.8668 H   0  0  0  0  0  0  0  0  0  0  0  0
  -10.9797  -21.4662   27.2899 H   0  0  0  0  0  0  0  0  0  0  0  0
  -11.5971  -21.1175   29.5475 H   0  0  0  0  0  0  0  0  0  0  0  0
  -11.9826  -21.9432   31.3871 H   0  0  0  0  0  0  0  0  0  0  0  0
  -12.7726  -21.0081   32.9824 H   0  0  0  0  0  0  0  0  0  0  0  0
  -12.9826  -22.2608   34.1792 H   0  0  0  0  0  0  0  0  0  0  0  0
  -15.4324  -22.0785   34.0674 H   0  0  0  0  0  0  0  0  0  0  0  0
  -16.3415  -20.2953   33.3299 H   0  0  0  0  0  0  0  0  0  0  0  0
  -15.6633  -23.1889   32.0263 H   0  0  0  0  0  0  0  0  0  0  0  0
  -14.9647  -21.7784   31.0982 H   0  0  0  0  0  0  0  0  0  0  0  0
  1  2  1  0
  2  3  1  0
  3  4  2  0
  4  5  1  0
  5  6  2  0
  6  7  1  0
  7  8  2  0
  8  9  1  0
  9 10  2  0
 10 11  1  0
 11 12  1  0
 12 13  2  0
 13 14  1  0
 14 15  2  0
 15 16  1  0
 16 17  2  0
 17 18  1  0
 18 19  1  0
 19 20  1  0
 20 21  1  0
 21 22  1  0
 21 23  1  0
 11  3  1  0
 17 12  1  0
 23 19  1  0
 10  5  1  0
 18  9  1  0
  1 24  1  0
  2 25  1  0
  2 26  1  0
  6 27  1  0
  7 28  1  0
  8 29  1  0
 13 30  1  0
 14 31  1  0
 15 32  1  0
 16 33  1  0
 18 34  1  0
 20 35  1  0
 20 36  1  0
 21 37  1  0
 22 38  1  0
 23 39  1  0
 23 40  1  0
M  END
>  <Energy>  (116) 
211.06136304917896

>  <compound_id>  (116) 
3161

>  <target_id>  (116) 
1

>  <reference_id>  (116) 
101

>  <inspiration_ids>  (116) 
[101, 173]

>  <energy_score>  (116) 
39.17163360872004

>  <distance_score>  (116) 
1.9597509863473448

>  <path>  (116) 
/opt/xchem-fragalysis-2/maxwin/BulkDock/SCRATCH/505734/C3161-P101/C3161-P101.minimised.mol

>  <scratch_subdir>  (116) 
/opt/xchem-fragalysis-2/maxwin/BulkDock/SCRATCH/505734/C3161-P101

>  <fragmenstein_runtime>  (116) 
12.6284921169281

>  <fragmenstein_outcome>  (116) 
too moved

>  <fragmenstein_mode>  (116) 
expansion

>  <fragmenstein_error>  (116) 


$$$$
C3161-P173
     RDKit          3D

 40 44  0  0  0  0  0  0  0  0999 V2000
  -13.3312  -26.7578   24.9640 O   0  0  0  0  0  0  0  0  0  0  0  0
  -13.0547  -25.6455   25.8388 C   0  0  0  0  0  0  0  0  0  0  0  0
  -13.4893  -26.0374   27.2014 C   0  0  0  0  0  0  0  0  0  0  0  0
  -13.7483  -27.3001   27.5052 N   0  0  0  0  0  0  0  0  0  0  0  0
  -14.2529  -27.2570   28.7729 C   0  0  0  0  0  0  0  0  0  0  0  0
  -14.6215  -28.2910   29.6193 C   0  0  0  0  0  0  0  0  0  0  0  0
  -15.1714  -27.9453   30.8570 C   0  0  0  0  0  0  0  0  0  0  0  0
  -15.2725  -26.6188   31.2867 C   0  0  0  0  0  0  0  0  0  0  0  0
  -14.6752  -25.5966   30.5580 C   0  0  0  0  0  0  0  0  0  0  0  0
  -14.3126  -25.9668   29.2550 C   0  0  0  0  0  0  0  0  0  0  0  0
  -13.6711  -25.2225   28.3146 N   0  0  0  0  0  0  0  0  0  0  0  0
  -13.1809  -23.9697   28.7071 C   0  0  0  0  0  0  0  0  0  0  0  0
  -12.3770  -23.3081   27.8000 C   0  0  0  0  0  0  0  0  0  0  0  0
  -11.6830  -22.2323   28.2450 C   0  0  0  0  0  0  0  0  0  0  0  0
  -11.8142  -21.8098   29.5489 C   0  0  0  0  0  0  0  0  0  0  0  0
  -12.6185  -22.4382   30.4696 C   0  0  0  0  0  0  0  0  0  0  0  0
  -13.3759  -23.5202   30.0799 C   0  0  0  0  0  0  0  0  0  0  0  0
  -14.1464  -24.3024   31.1784 C   0  0  0  0  0  0  0  0  0  0  0  0
  -15.0944  -23.6672   32.1448 N   0  0  0  0  0  0  0  0  0  0  0  0
  -14.5758  -22.7254   33.1658 C   0  0  0  0  0  0  0  0  0  0  0  0
  -15.8629  -21.8763   32.9770 C   0  0  0  0  0  0  0  0  0  0  0  0
  -15.7684  -20.4373   32.8418 O   0  0  0  0  0  0  0  0  0  0  0  0
  -15.9789  -22.6216   31.6500 C   0  0  0  0  0  0  0  0  0  0  0  0
  -13.5989  -27.4812   25.5727 H   0  0  0  0  0  0  0  0  0  0  0  0
  -11.9765  -25.4731   25.7982 H   0  0  0  0  0  0  0  0  0  0  0  0
  -13.6086  -24.7829   25.4608 H   0  0  0  0  0  0  0  0  0  0  0  0
  -14.5506  -29.3249   29.3061 H   0  0  0  0  0  0  0  0  0  0  0  0
  -15.5347  -28.7331   31.5125 H   0  0  0  0  0  0  0  0  0  0  0  0
  -15.6608  -26.4089   32.2819 H   0  0  0  0  0  0  0  0  0  0  0  0
  -12.2200  -23.5810   26.7705 H   0  0  0  0  0  0  0  0  0  0  0  0
  -11.0150  -21.7333   27.5674 H   0  0  0  0  0  0  0  0  0  0  0  0
  -11.2006  -21.0037   29.8873 H   0  0  0  0  0  0  0  0  0  0  0  0
  -12.5429  -22.1008   31.4913 H   0  0  0  0  0  0  0  0  0  0  0  0
  -13.3346  -24.6739   31.8227 H   0  0  0  0  0  0  0  0  0  0  0  0
  -13.6646  -22.1692   32.9723 H   0  0  0  0  0  0  0  0  0  0  0  0
  -14.4785  -23.1729   34.1609 H   0  0  0  0  0  0  0  0  0  0  0  0
  -16.6564  -22.1437   33.6876 H   0  0  0  0  0  0  0  0  0  0  0  0
  -15.7294  -20.1229   33.7636 H   0  0  0  0  0  0  0  0  0  0  0  0
  -17.0149  -22.9345   31.5006 H   0  0  0  0  0  0  0  0  0  0  0  0
  -15.6024  -22.0044   30.8339 H   0  0  0  0  0  0  0  0  0  0  0  0
  1  2  1  0
  2  3  1  0
  3  4  2  0
  4  5  1  0
  5  6  2  0
  6  7  1  0
  7  8  2  0
  8  9  1  0
  9 10  2  0
 10 11  1  0
 11 12  1  0
 12 13  2  0
 13 14  1  0
 14 15  2  0
 15 16  1  0
 16 17  2  0
 17 18  1  0
 18 19  1  0
 19 20  1  0
 20 21  1  0
 21 22  1  0
 21 23  1  0
 11  3  1  0
 17 12  1  0
 23 19  1  0
 10  5  1  0
 18  9  1  0
  1 24  1  0
  2 25  1  0
  2 26  1  0
  6 27  1  0
  7 28  1  0
  8 29  1  0
 13 30  1  0
 14 31  1  0
 15 32  1  0
 16 33  1  0
 18 34  1  0
 20 35  1  0
 20 36  1  0
 21 37  1  0
 22 38  1  0
 23 39  1  0
 23 40  1  0
M  END
>  <Energy>  (117) 
140.61178137630353

>  <compound_id>  (117) 
3161

>  <target_id>  (117) 
1

>  <reference_id>  (117) 
173

>  <inspiration_ids>  (117) 
[101, 173]

>  <energy_score>  (117) 
-31.2779480641517

>  <distance_score>  (117) 
2.6108294312115756

>  <path>  (117) 
/opt/xchem-fragalysis-2/maxwin/BulkDock/SCRATCH/505734/C3161-P173/C3161-P173.minimised.mol

>  <scratch_subdir>  (117) 
/opt/xchem-fragalysis-2/maxwin/BulkDock/SCRATCH/505734/C3161-P173

>  <fragmenstein_runtime>  (117) 
13.40269136428833

>  <fragmenstein_outcome>  (117) 
too moved

>  <fragmenstein_mode>  (117) 
expansion

>  <fragmenstein_error>  (117) 


$$$$
C3164-P103
     RDKit          3D

 38 40  0  0  0  0  0  0  0  0999 V2000
   13.6320    4.8340   17.7908 C   0  0  0  0  0  0  0  0  0  0  0  0
   14.2333    4.5211   16.4213 C   0  0  0  0  0  0  0  0  0  0  0  0
   15.6819    4.2995   16.5743 N   0  0  0  0  0  0  0  0  0  0  0  0
   13.4950    3.4061   15.7442 C   0  0  0  0  0  0  0  0  0  0  0  0
   12.2555    2.9899   15.8974 N   0  0  0  0  0  0  0  0  0  0  0  0
   12.2282    1.8796   15.0900 C   0  0  0  0  0  0  0  0  0  0  0  0
   11.2047    0.8104   15.2329 C   0  0  0  0  0  0  0  0  0  0  0  0
   11.9442   -0.4179   15.7493 C   0  0  0  0  0  0  0  0  0  0  0  0
   11.5386   -1.7112   15.3553 C   0  0  0  0  0  0  0  0  0  0  0  0
   12.1998   -2.8585   15.8036 C   0  0  0  0  0  0  0  0  0  0  0  0
   13.3133   -2.7810   16.6435 C   0  0  0  0  0  0  0  0  0  0  0  0
   13.7041   -1.5042   17.0502 C   0  0  0  0  0  0  0  0  0  0  0  0
   13.0303   -0.3561   16.6561 C   0  0  0  0  0  0  0  0  0  0  0  0
   13.5746    0.7476   17.2691 N   0  0  0  0  0  0  0  0  0  0  0  0
   14.5845    0.3219   17.9868 C   0  0  0  0  0  0  0  0  0  0  0  0
   15.5277    1.1878   18.7388 C   0  0  0  0  0  0  0  0  0  0  0  0
   16.5784    1.5337   17.8393 O   0  0  0  0  0  0  0  0  0  0  0  0
   14.7164   -1.0345   17.8529 N   0  0  0  0  0  0  0  0  0  0  0  0
   15.7737   -1.8003   18.4480 C   0  0  0  0  0  0  0  0  0  0  0  0
   13.3006    1.7427   14.2944 N   0  0  0  0  0  0  0  0  0  0  0  0
   14.1729    2.7171   14.7778 O   0  0  0  0  0  0  0  0  0  0  0  0
   13.6749    3.9688   18.4613 H   0  0  0  0  0  0  0  0  0  0  0  0
   12.5793    5.1251   17.6979 H   0  0  0  0  0  0  0  0  0  0  0  0
   14.1592    5.6649   18.2732 H   0  0  0  0  0  0  0  0  0  0  0  0
   14.1132    5.4106   15.7911 H   0  0  0  0  0  0  0  0  0  0  0  0
   15.8467    3.5647   17.2628 H   0  0  0  0  0  0  0  0  0  0  0  0
   16.0632    3.9623   15.6915 H   0  0  0  0  0  0  0  0  0  0  0  0
   10.4218    1.0944   15.9430 H   0  0  0  0  0  0  0  0  0  0  0  0
   10.7431    0.6067   14.2605 H   0  0  0  0  0  0  0  0  0  0  0  0
   10.6964   -1.8290   14.6760 H   0  0  0  0  0  0  0  0  0  0  0  0
   11.8382   -3.8316   15.4825 H   0  0  0  0  0  0  0  0  0  0  0  0
   13.8257   -3.6780   16.9715 H   0  0  0  0  0  0  0  0  0  0  0  0
   15.9554    0.6949   19.6154 H   0  0  0  0  0  0  0  0  0  0  0  0
   15.0341    2.1054   19.0683 H   0  0  0  0  0  0  0  0  0  0  0  0
   16.1921    1.5194   16.9423 H   0  0  0  0  0  0  0  0  0  0  0  0
   15.6373   -1.7995   19.5326 H   0  0  0  0  0  0  0  0  0  0  0  0
   16.7353   -1.3541   18.1810 H   0  0  0  0  0  0  0  0  0  0  0  0
   15.7496   -2.8285   18.0805 H   0  0  0  0  0  0  0  0  0  0  0  0
  1  2  1  0
  2  3  1  0
  2  4  1  0
  4  5  2  0
  5  6  1  0
  6  7  1  0
  7  8  1  0
  8  9  2  0
  9 10  1  0
 10 11  2  0
 11 12  1  0
 12 13  2  0
 13 14  1  0
 14 15  2  0
 15 16  1  0
 16 17  1  0
 15 18  1  0
 18 19  1  0
  6 20  2  0
 20 21  1  0
 21  4  1  0
 13  8  1  0
 18 12  1  0
  1 22  1  0
  1 23  1  0
  1 24  1  0
  2 25  1  0
  3 26  1  0
  3 27  1  0
  7 28  1  0
  7 29  1  0
  9 30  1  0
 10 31  1  0
 11 32  1  0
 16 33  1  0
 16 34  1  0
 17 35  1  0
 19 36  1  0
 19 37  1  0
 19 38  1  0
M  END
>  <Energy>  (118) 
72.252362398842862

>  <compound_id>  (118) 
3164

>  <target_id>  (118) 
1

>  <reference_id>  (118) 
103

>  <inspiration_ids>  (118) 
[103, 5]

>  <energy_score>  (118) 
-30.28158533993541

>  <distance_score>  (118) 
1.2415659072257015

>  <path>  (118) 
/opt/xchem-fragalysis-2/maxwin/BulkDock/SCRATCH/505734/C3164-P103/C3164-P103.minimised.mol

>  <scratch_subdir>  (118) 
/opt/xchem-fragalysis-2/maxwin/BulkDock/SCRATCH/505734/C3164-P103

>  <fragmenstein_runtime>  (118) 
3.177565097808838

>  <fragmenstein_outcome>  (118) 
too moved

>  <fragmenstein_mode>  (118) 
expansion

>  <fragmenstein_error>  (118) 


$$$$
C3164-P5
     RDKit          3D

 38 40  0  0  0  0  0  0  0  0999 V2000
   13.8031    4.7805   17.6679 C   0  0  0  0  0  0  0  0  0  0  0  0
   14.4425    4.2853   16.3729 C   0  0  0  0  0  0  0  0  0  0  0  0
   15.7959    3.7615   16.6713 N   0  0  0  0  0  0  0  0  0  0  0  0
   13.5662    3.2952   15.6706 C   0  0  0  0  0  0  0  0  0  0  0  0
   12.3078    2.9613   15.8703 N   0  0  0  0  0  0  0  0  0  0  0  0
   12.1812    1.8699   15.0443 C   0  0  0  0  0  0  0  0  0  0  0  0
   11.1613    0.8105   15.2638 C   0  0  0  0  0  0  0  0  0  0  0  0
   11.9426   -0.4016   15.7579 C   0  0  0  0  0  0  0  0  0  0  0  0
   11.6004   -1.7026   15.3326 C   0  0  0  0  0  0  0  0  0  0  0  0
   12.3187   -2.8248   15.7573 C   0  0  0  0  0  0  0  0  0  0  0  0
   13.4342   -2.7108   16.5917 C   0  0  0  0  0  0  0  0  0  0  0  0
   13.7558   -1.4269   17.0344 C   0  0  0  0  0  0  0  0  0  0  0  0
   13.0185   -0.3080   16.6758 C   0  0  0  0  0  0  0  0  0  0  0  0
   13.4745    0.7983   17.3535 N   0  0  0  0  0  0  0  0  0  0  0  0
   14.4829    0.4021   18.0936 C   0  0  0  0  0  0  0  0  0  0  0  0
   15.2390    1.2334   19.0682 C   0  0  0  0  0  0  0  0  0  0  0  0
   16.4361    1.6612   18.4351 O   0  0  0  0  0  0  0  0  0  0  0  0
   14.7420   -0.9216   17.8485 N   0  0  0  0  0  0  0  0  0  0  0  0
   15.8625   -1.6355   18.3898 C   0  0  0  0  0  0  0  0  0  0  0  0
   13.1886    1.7093   14.1726 N   0  0  0  0  0  0  0  0  0  0  0  0
   14.1425    2.6132   14.6357 O   0  0  0  0  0  0  0  0  0  0  0  0
   13.6260    3.9615   18.3728 H   0  0  0  0  0  0  0  0  0  0  0  0
   12.8356    5.2556   17.4685 H   0  0  0  0  0  0  0  0  0  0  0  0
   14.4374    5.5241   18.1635 H   0  0  0  0  0  0  0  0  0  0  0  0
   14.5640    5.1450   15.7023 H   0  0  0  0  0  0  0  0  0  0  0  0
   16.2194    3.4768   15.7845 H   0  0  0  0  0  0  0  0  0  0  0  0
   16.3674    4.5335   17.0173 H   0  0  0  0  0  0  0  0  0  0  0  0
   10.4219    1.1080   16.0135 H   0  0  0  0  0  0  0  0  0  0  0  0
   10.6436    0.5882   14.3244 H   0  0  0  0  0  0  0  0  0  0  0  0
   10.7684   -1.8456   14.6456 H   0  0  0  0  0  0  0  0  0  0  0  0
   12.0080   -3.8076   15.4149 H   0  0  0  0  0  0  0  0  0  0  0  0
   13.9972   -3.5865   16.8926 H   0  0  0  0  0  0  0  0  0  0  0  0
   15.4991    0.6673   19.9671 H   0  0  0  0  0  0  0  0  0  0  0  0
   14.6620    2.1085   19.3793 H   0  0  0  0  0  0  0  0  0  0  0  0
   16.1378    2.3003   17.7465 H   0  0  0  0  0  0  0  0  0  0  0  0
   15.9736   -2.5975   17.8840 H   0  0  0  0  0  0  0  0  0  0  0  0
   15.6891   -1.8009   19.4562 H   0  0  0  0  0  0  0  0  0  0  0  0
   16.7739   -1.0531   18.2341 H   0  0  0  0  0  0  0  0  0  0  0  0
  1  2  1  0
  2  3  1  0
  2  4  1  0
  4  5  2  0
  5  6  1  0
  6  7  1  0
  7  8  1  0
  8  9  2  0
  9 10  1  0
 10 11  2  0
 11 12  1  0
 12 13  2  0
 13 14  1  0
 14 15  2  0
 15 16  1  0
 16 17  1  0
 15 18  1  0
 18 19  1  0
  6 20  2  0
 20 21  1  0
 21  4  1  0
 13  8  1  0
 18 12  1  0
  1 22  1  0
  1 23  1  0
  1 24  1  0
  2 25  1  0
  3 26  1  0
  3 27  1  0
  7 28  1  0
  7 29  1  0
  9 30  1  0
 10 31  1  0
 11 32  1  0
 16 33  1  0
 16 34  1  0
 17 35  1  0
 19 36  1  0
 19 37  1  0
 19 38  1  0
M  END
>  <Energy>  (119) 
70.04910703315204

>  <compound_id>  (119) 
3164

>  <target_id>  (119) 
1

>  <reference_id>  (119) 
5

>  <inspiration_ids>  (119) 
[103, 5]

>  <energy_score>  (119) 
-32.484840705625956

>  <distance_score>  (119) 
1.209223264230952

>  <path>  (119) 
/opt/xchem-fragalysis-2/maxwin/BulkDock/SCRATCH/505734/C3164-P5/C3164-P5.minimised.mol

>  <scratch_subdir>  (119) 
/opt/xchem-fragalysis-2/maxwin/BulkDock/SCRATCH/505734/C3164-P5

>  <fragmenstein_runtime>  (119) 
3.0582938194274902

>  <fragmenstein_outcome>  (119) 
too moved

>  <fragmenstein_mode>  (119) 
expansion

>  <fragmenstein_error>  (119) 


$$$$
C3165-P103
     RDKit          3D

 28 30  0  0  0  0  0  0  0  0999 V2000
   10.2525   -1.2366   15.0219 C   0  0  0  0  0  0  0  0  0  0  0  0
   11.5849   -2.3683   14.6480 S   0  0  0  0  0  0  0  0  0  0  0  0
   11.9598   -2.3123   13.2607 O   0  0  0  0  0  0  0  0  0  0  0  0
   11.2658   -3.6150   15.3115 O   0  0  0  0  0  0  0  0  0  0  0  0
   12.9095   -1.6444   15.5166 C   0  0  0  0  0  0  0  0  0  0  0  0
   13.4244   -2.3297   16.6575 C   0  0  0  0  0  0  0  0  0  0  0  0
   14.1530   -1.6435   17.6605 C   0  0  0  0  0  0  0  0  0  0  0  0
   14.2715   -0.2652   17.4838 C   0  0  0  0  0  0  0  0  0  0  0  0
   14.6097    0.8368   18.2503 N   0  0  0  0  0  0  0  0  0  0  0  0
   14.3386    1.9178   17.5009 C   0  0  0  0  0  0  0  0  0  0  0  0
   14.2704    3.3316   17.9121 C   0  0  0  0  0  0  0  0  0  0  0  0
   12.9838    3.8177   17.5423 O   0  0  0  0  0  0  0  0  0  0  0  0
   14.0489    1.5307   16.2482 N   0  0  0  0  0  0  0  0  0  0  0  0
   13.8717    0.2058   16.2875 C   0  0  0  0  0  0  0  0  0  0  0  0
   13.2186   -0.3289   15.2446 C   0  0  0  0  0  0  0  0  0  0  0  0
   12.9786    0.6739   14.3068 N   0  0  0  0  0  0  0  0  0  0  0  0
   13.4604    1.9655   15.0045 C   0  0  0  0  0  0  0  0  0  0  0  0
    9.3030   -1.7680   14.9359 H   0  0  0  0  0  0  0  0  0  0  0  0
   10.3578   -0.8931   16.0495 H   0  0  0  0  0  0  0  0  0  0  0  0
   10.2820   -0.3801   14.3494 H   0  0  0  0  0  0  0  0  0  0  0  0
   13.1784   -3.3784   16.8273 H   0  0  0  0  0  0  0  0  0  0  0  0
   14.4669   -2.1329   18.5753 H   0  0  0  0  0  0  0  0  0  0  0  0
   15.0288    3.9268   17.3954 H   0  0  0  0  0  0  0  0  0  0  0  0
   14.4040    3.4512   18.9912 H   0  0  0  0  0  0  0  0  0  0  0  0
   12.3485    3.5063   18.2234 H   0  0  0  0  0  0  0  0  0  0  0  0
   12.0216    0.7447   13.9893 H   0  0  0  0  0  0  0  0  0  0  0  0
   14.2250    2.4542   14.3954 H   0  0  0  0  0  0  0  0  0  0  0  0
   12.6085    2.6206   15.2045 H   0  0  0  0  0  0  0  0  0  0  0  0
  1  2  1  0
  2  3  2  0
  2  4  2  0
  2  5  1  0
  5  6  2  0
  6  7  1  0
  7  8  2  0
  8  9  1  0
  9 10  2  0
 10 11  1  0
 11 12  1  0
 10 13  1  0
 13 14  1  0
 14 15  2  0
 15 16  1  0
 16 17  1  0
 15  5  1  0
 14  8  1  0
 17 13  1  0
  1 18  1  0
  1 19  1  0
  1 20  1  0
  6 21  1  0
  7 22  1  0
 11 23  1  0
 11 24  1  0
 12 25  1  0
 16 26  1  0
 17 27  1  0
 17 28  1  0
M  END
>  <Energy>  (120) 
101.33631503249853

>  <compound_id>  (120) 
3165

>  <target_id>  (120) 
1

>  <reference_id>  (120) 
103

>  <inspiration_ids>  (120) 
[103, 6]

>  <energy_score>  (120) 
-15.556021663680767

>  <distance_score>  (120) 
1.6554888865815955

>  <path>  (120) 
/opt/xchem-fragalysis-2/maxwin/BulkDock/SCRATCH/505734/C3165-P103/C3165-P103.minimised.mol

>  <scratch_subdir>  (120) 
/opt/xchem-fragalysis-2/maxwin/BulkDock/SCRATCH/505734/C3165-P103

>  <fragmenstein_runtime>  (120) 
1.0143988132476807

>  <fragmenstein_outcome>  (120) 
too moved

>  <fragmenstein_mode>  (120) 
expansion

>  <fragmenstein_error>  (120) 


$$$$
C3165-P6
     RDKit          3D

 28 30  0  0  0  0  0  0  0  0999 V2000
   10.4595    1.4915   15.4875 C   0  0  0  0  0  0  0  0  0  0  0  0
   10.3609    0.0665   14.4306 S   0  0  0  0  0  0  0  0  0  0  0  0
    9.3482   -0.7578   15.0736 O   0  0  0  0  0  0  0  0  0  0  0  0
   10.2321    0.6177   13.0885 O   0  0  0  0  0  0  0  0  0  0  0  0
   11.9569   -0.7204   14.6131 C   0  0  0  0  0  0  0  0  0  0  0  0
   12.0051   -1.8370   15.5083 C   0  0  0  0  0  0  0  0  0  0  0  0
   12.9395   -1.8751   16.5799 C   0  0  0  0  0  0  0  0  0  0  0  0
   13.7160   -0.7220   16.7106 C   0  0  0  0  0  0  0  0  0  0  0  0
   14.3044   -0.0273   17.7558 N   0  0  0  0  0  0  0  0  0  0  0  0
   14.5467    1.2058   17.2825 C   0  0  0  0  0  0  0  0  0  0  0  0
   14.7184    2.4677   18.0352 C   0  0  0  0  0  0  0  0  0  0  0  0
   13.5194    3.2217   17.8590 O   0  0  0  0  0  0  0  0  0  0  0  0
   14.4631    1.1968   15.9306 N   0  0  0  0  0  0  0  0  0  0  0  0
   13.7817    0.0758   15.6205 C   0  0  0  0  0  0  0  0  0  0  0  0
   13.0178    0.1587   14.5106 C   0  0  0  0  0  0  0  0  0  0  0  0
   13.2917    1.3659   13.8595 N   0  0  0  0  0  0  0  0  0  0  0  0
   14.1726    2.1297   14.8522 C   0  0  0  0  0  0  0  0  0  0  0  0
   10.9992    1.2359   16.3929 H   0  0  0  0  0  0  0  0  0  0  0  0
   10.9527    2.3145   14.9706 H   0  0  0  0  0  0  0  0  0  0  0  0
    9.4430    1.7969   15.7471 H   0  0  0  0  0  0  0  0  0  0  0  0
   11.1857   -2.5567   15.5100 H   0  0  0  0  0  0  0  0  0  0  0  0
   12.8600   -2.6131   17.3701 H   0  0  0  0  0  0  0  0  0  0  0  0
   15.5572    3.0514   17.6448 H   0  0  0  0  0  0  0  0  0  0  0  0
   14.8824    2.2862   19.1016 H   0  0  0  0  0  0  0  0  0  0  0  0
   12.9412    2.9957   18.6147 H   0  0  0  0  0  0  0  0  0  0  0  0
   12.4909    1.8888   13.5243 H   0  0  0  0  0  0  0  0  0  0  0  0
   15.1146    2.4155   14.3769 H   0  0  0  0  0  0  0  0  0  0  0  0
   13.6345    2.9954   15.2465 H   0  0  0  0  0  0  0  0  0  0  0  0
  1  2  1  0
  2  3  2  0
  2  4  2  0
  2  5  1  0
  5  6  2  0
  6  7  1  0
  7  8  2  0
  8  9  1  0
  9 10  2  0
 10 11  1  0
 11 12  1  0
 10 13  1  0
 13 14  1  0
 14 15  2  0
 15 16  1  0
 16 17  1  0
 15  5  1  0
 14  8  1  0
 17 13  1  0
  1 18  1  0
  1 19  1  0
  1 20  1  0
  6 21  1  0
  7 22  1  0
 11 23  1  0
 11 24  1  0
 12 25  1  0
 16 26  1  0
 17 27  1  0
 17 28  1  0
M  END
>  <Energy>  (121) 
124.82226396030492

>  <compound_id>  (121) 
3165

>  <target_id>  (121) 
1

>  <reference_id>  (121) 
6

>  <inspiration_ids>  (121) 
[103, 6]

>  <energy_score>  (121) 
7.929927264128921

>  <distance_score>  (121) 
1.649673981754345

>  <path>  (121) 
/opt/xchem-fragalysis-2/maxwin/BulkDock/SCRATCH/505734/C3165-P6/C3165-P6.minimised.mol

>  <scratch_subdir>  (121) 
/opt/xchem-fragalysis-2/maxwin/BulkDock/SCRATCH/505734/C3165-P6

>  <fragmenstein_runtime>  (121) 
0.935387372970581

>  <fragmenstein_outcome>  (121) 
too moved

>  <fragmenstein_mode>  (121) 
expansion

>  <fragmenstein_error>  (121) 


$$$$
C3167-P103
     RDKit          3D

 38 40  0  0  0  0  0  0  0  0999 V2000
   15.0558    0.5777   17.8819 C   0  0  0  0  0  0  0  0  0  0  0  0
   13.9237    0.4330   16.9972 N   0  0  0  0  0  0  0  0  0  0  0  0
   13.1920    1.4715   16.4579 C   0  0  0  0  0  0  0  0  0  0  0  0
   13.4812    2.9135   16.6891 C   0  0  0  0  0  0  0  0  0  0  0  0
   13.2430    3.1927   18.0627 O   0  0  0  0  0  0  0  0  0  0  0  0
   12.1952    1.0105   15.7307 N   0  0  0  0  0  0  0  0  0  0  0  0
   12.2773   -0.3544   15.7995 C   0  0  0  0  0  0  0  0  0  0  0  0
   11.4368   -1.3082   15.2104 C   0  0  0  0  0  0  0  0  0  0  0  0
   11.6790   -2.6613   15.4482 C   0  0  0  0  0  0  0  0  0  0  0  0
   12.7411   -3.0581   16.2602 C   0  0  0  0  0  0  0  0  0  0  0  0
   13.6129   -2.1225   16.8348 C   0  0  0  0  0  0  0  0  0  0  0  0
   14.7132   -2.5301   17.5792 N   0  0  0  0  0  0  0  0  0  0  0  0
   15.1540   -3.9576   18.0398 C   0  0  0  0  0  0  0  0  0  0  0  0
   14.6152   -4.9910   17.9264 O   0  0  0  0  0  0  0  0  0  0  0  0
   16.5702   -3.7838   18.6445 C   0  0  0  0  0  0  0  0  0  0  0  0
   17.5596   -3.4511   17.5101 C   0  0  0  0  0  0  0  0  0  0  0  0
   18.8776   -3.1927   18.0157 O   0  0  0  0  0  0  0  0  0  0  0  0
   19.2235   -4.0400   19.1229 C   0  0  0  0  0  0  0  0  0  0  0  0
   18.3456   -5.2869   19.2151 C   0  0  0  0  0  0  0  0  0  0  0  0
   16.9688   -4.9394   19.3952 O   0  0  0  0  0  0  0  0  0  0  0  0
   13.3505   -0.7600   16.5942 C   0  0  0  0  0  0  0  0  0  0  0  0
   15.9276    0.1266   17.4013 H   0  0  0  0  0  0  0  0  0  0  0  0
   14.8222    0.0854   18.8294 H   0  0  0  0  0  0  0  0  0  0  0  0
   15.2751    1.6280   18.0748 H   0  0  0  0  0  0  0  0  0  0  0  0
   14.5212    3.1540   16.4506 H   0  0  0  0  0  0  0  0  0  0  0  0
   12.8342    3.5526   16.0802 H   0  0  0  0  0  0  0  0  0  0  0  0
   12.2689    3.1701   18.1918 H   0  0  0  0  0  0  0  0  0  0  0  0
   10.6096   -0.9909   14.5830 H   0  0  0  0  0  0  0  0  0  0  0  0
   11.0323   -3.4089   14.9932 H   0  0  0  0  0  0  0  0  0  0  0  0
   12.8880   -4.1241   16.4222 H   0  0  0  0  0  0  0  0  0  0  0  0
   15.3770   -1.8497   17.9095 H   0  0  0  0  0  0  0  0  0  0  0  0
   16.5403   -2.9589   19.3669 H   0  0  0  0  0  0  0  0  0  0  0  0
   17.2578   -2.5674   16.9403 H   0  0  0  0  0  0  0  0  0  0  0  0
   17.6286   -4.2810   16.7960 H   0  0  0  0  0  0  0  0  0  0  0  0
   19.1163   -3.4364   20.0310 H   0  0  0  0  0  0  0  0  0  0  0  0
   20.2778   -4.3130   19.0192 H   0  0  0  0  0  0  0  0  0  0  0  0
   18.6476   -5.9075   20.0641 H   0  0  0  0  0  0  0  0  0  0  0  0
   18.4279   -5.8959   18.3079 H   0  0  0  0  0  0  0  0  0  0  0  0
  1  2  1  0
  2  3  1  0
  3  4  1  0
  4  5  1  0
  3  6  2  0
  6  7  1  0
  7  8  2  0
  8  9  1  0
  9 10  2  0
 10 11  1  0
 11 12  1  0
 12 13  1  0
 13 14  2  0
 13 15  1  0
 15 16  1  0
 16 17  1  0
 17 18  1  0
 18 19  1  0
 19 20  1  0
 11 21  2  0
 21  2  1  0
 21  7  1  0
 20 15  1  0
  1 22  1  0
  1 23  1  0
  1 24  1  0
  4 25  1  0
  4 26  1  0
  5 27  1  0
  8 28  1  0
  9 29  1  0
 10 30  1  0
 12 31  1  0
 15 32  1  0
 16 33  1  0
 16 34  1  0
 18 35  1  0
 18 36  1  0
 19 37  1  0
 19 38  1  0
M  END
>  <Energy>  (122) 
111.0664840539127

>  <compound_id>  (122) 
3167

>  <target_id>  (122) 
1

>  <reference_id>  (122) 
103

>  <inspiration_ids>  (122) 
[103, 10]

>  <energy_score>  (122) 
-33.88633470926143

>  <distance_score>  (122) 
0.9490955302597258

>  <path>  (122) 
/opt/xchem-fragalysis-2/maxwin/BulkDock/SCRATCH/505734/C3167-P103/C3167-P103.minimised.mol

>  <scratch_subdir>  (122) 
/opt/xchem-fragalysis-2/maxwin/BulkDock/SCRATCH/505734/C3167-P103

>  <fragmenstein_runtime>  (122) 
1.8237237930297852

>  <fragmenstein_outcome>  (122) 
acceptable

>  <fragmenstein_mode>  (122) 
expansion

>  <fragmenstein_error>  (122) 


$$$$
C3167-P10
     RDKit          3D

 38 40  0  0  0  0  0  0  0  0999 V2000
   15.2551    0.4223   17.5909 C   0  0  0  0  0  0  0  0  0  0  0  0
   14.1246    0.3706   16.6913 N   0  0  0  0  0  0  0  0  0  0  0  0
   13.3879    1.4535   16.2649 C   0  0  0  0  0  0  0  0  0  0  0  0
   13.7724    2.8697   16.5030 C   0  0  0  0  0  0  0  0  0  0  0  0
   13.1808    3.2538   17.7379 O   0  0  0  0  0  0  0  0  0  0  0  0
   12.2667    1.0602   15.6918 N   0  0  0  0  0  0  0  0  0  0  0  0
   12.3054   -0.3119   15.6966 C   0  0  0  0  0  0  0  0  0  0  0  0
   11.3464   -1.2286   15.2460 C   0  0  0  0  0  0  0  0  0  0  0  0
   11.5850   -2.5941   15.4300 C   0  0  0  0  0  0  0  0  0  0  0  0
   12.7780   -3.0405   15.9992 C   0  0  0  0  0  0  0  0  0  0  0  0
   13.7918   -2.1414   16.3354 C   0  0  0  0  0  0  0  0  0  0  0  0
   15.0838   -2.5687   16.6007 N   0  0  0  0  0  0  0  0  0  0  0  0
   15.6258   -3.9811   16.9688 C   0  0  0  0  0  0  0  0  0  0  0  0
   15.0554   -4.9805   17.1796 O   0  0  0  0  0  0  0  0  0  0  0  0
   17.1577   -3.8145   17.0628 C   0  0  0  0  0  0  0  0  0  0  0  0
   17.5251   -3.5037   18.5106 C   0  0  0  0  0  0  0  0  0  0  0  0
   18.9452   -3.4319   18.7252 O   0  0  0  0  0  0  0  0  0  0  0  0
   19.6764   -3.1454   17.5270 C   0  0  0  0  0  0  0  0  0  0  0  0
   18.8926   -2.2119   16.6086 C   0  0  0  0  0  0  0  0  0  0  0  0
   17.6285   -2.7573   16.1991 O   0  0  0  0  0  0  0  0  0  0  0  0
   13.4917   -0.7752   16.2594 C   0  0  0  0  0  0  0  0  0  0  0  0
   16.1682    0.3794   16.9927 H   0  0  0  0  0  0  0  0  0  0  0  0
   15.2045   -0.4185   18.2871 H   0  0  0  0  0  0  0  0  0  0  0  0
   15.2282    1.3453   18.1739 H   0  0  0  0  0  0  0  0  0  0  0  0
   14.8549    3.0099   16.5626 H   0  0  0  0  0  0  0  0  0  0  0  0
   13.3868    3.5186   15.7105 H   0  0  0  0  0  0  0  0  0  0  0  0
   12.2225    3.1224   17.6114 H   0  0  0  0  0  0  0  0  0  0  0  0
   10.4279   -0.8806   14.7834 H   0  0  0  0  0  0  0  0  0  0  0  0
   10.8431   -3.3169   15.0976 H   0  0  0  0  0  0  0  0  0  0  0  0
   12.9358   -4.1112   16.1017 H   0  0  0  0  0  0  0  0  0  0  0  0
   15.8528   -1.9085   16.5679 H   0  0  0  0  0  0  0  0  0  0  0  0
   17.6184   -4.7471   16.7166 H   0  0  0  0  0  0  0  0  0  0  0  0
   17.1274   -4.2609   19.1945 H   0  0  0  0  0  0  0  0  0  0  0  0
   17.1079   -2.5374   18.8191 H   0  0  0  0  0  0  0  0  0  0  0  0
   19.8898   -4.0968   17.0271 H   0  0  0  0  0  0  0  0  0  0  0  0
   20.6308   -2.6947   17.8150 H   0  0  0  0  0  0  0  0  0  0  0  0
   19.4661   -1.9823   15.7057 H   0  0  0  0  0  0  0  0  0  0  0  0
   18.6798   -1.2681   17.1230 H   0  0  0  0  0  0  0  0  0  0  0  0
  1  2  1  0
  2  3  1  0
  3  4  1  0
  4  5  1  0
  3  6  2  0
  6  7  1  0
  7  8  2  0
  8  9  1  0
  9 10  2  0
 10 11  1  0
 11 12  1  0
 12 13  1  0
 13 14  2  0
 13 15  1  0
 15 16  1  0
 16 17  1  0
 17 18  1  0
 18 19  1  0
 19 20  1  0
 11 21  2  0
 21  2  1  0
 21  7  1  0
 20 15  1  0
  1 22  1  0
  1 23  1  0
  1 24  1  0
  4 25  1  0
  4 26  1  0
  5 27  1  0
  8 28  1  0
  9 29  1  0
 10 30  1  0
 12 31  1  0
 15 32  1  0
 16 33  1  0
 16 34  1  0
 18 35  1  0
 18 36  1  0
 19 37  1  0
 19 38  1  0
M  END
>  <Energy>  (123) 
106.3501157301839

>  <compound_id>  (123) 
3167

>  <target_id>  (123) 
1

>  <reference_id>  (123) 
10

>  <inspiration_ids>  (123) 
[103, 10]

>  <energy_score>  (123) 
-38.60270303298904

>  <distance_score>  (123) 
0.9604183887673798

>  <path>  (123) 
/opt/xchem-fragalysis-2/maxwin/BulkDock/SCRATCH/505734/C3167-P10/C3167-P10.minimised.mol

>  <scratch_subdir>  (123) 
/opt/xchem-fragalysis-2/maxwin/BulkDock/SCRATCH/505734/C3167-P10

>  <fragmenstein_runtime>  (123) 
1.5908429622650146

>  <fragmenstein_outcome>  (123) 
acceptable

>  <fragmenstein_mode>  (123) 
expansion

>  <fragmenstein_error>  (123) 


$$$$
C661-P103
     RDKit          3D

 44 46  0  0  0  0  0  0  0  0999 V2000
   15.2850   -2.4584   12.1433 N   0  0  0  0  0  0  0  0  0  0  0  0
   16.7455   -1.7832   12.6400 S   0  0  0  0  0  0  0  0  0  0  0  0
   17.5399   -2.8702   13.1525 O   0  0  0  0  0  0  0  0  0  0  0  0
   17.1617   -1.0327   11.4806 O   0  0  0  0  0  0  0  0  0  0  0  0
   16.2122   -0.6619   13.9501 C   0  0  0  0  0  0  0  0  0  0  0  0
   17.3361    0.1708   14.5818 C   0  0  0  0  0  0  0  0  0  0  0  0
   16.9378    0.9131   15.8993 C   0  0  0  0  0  0  0  0  0  0  0  0
   15.9076    0.2474   16.8628 C   0  0  0  0  0  0  0  0  0  0  0  0
   14.7835   -0.3583   16.0244 C   0  0  0  0  0  0  0  0  0  0  0  0
   13.6031   -1.1665   16.5093 C   0  0  0  0  0  0  0  0  0  0  0  0
   13.6013   -2.2806   17.3233 C   0  0  0  0  0  0  0  0  0  0  0  0
   12.6898   -3.2946   17.0299 C   0  0  0  0  0  0  0  0  0  0  0  0
   11.7287   -3.1304   16.0225 C   0  0  0  0  0  0  0  0  0  0  0  0
   11.6002   -1.9178   15.3589 C   0  0  0  0  0  0  0  0  0  0  0  0
   12.5558   -0.9534   15.5982 C   0  0  0  0  0  0  0  0  0  0  0  0
   12.6593    0.2438   14.8567 N   0  0  0  0  0  0  0  0  0  0  0  0
   13.9396    0.8177   15.3318 C   0  0  0  0  0  0  0  0  0  0  0  0
   13.6240    2.1079   16.1771 C   0  0  0  0  0  0  0  0  0  0  0  0
   13.2110    1.8794   17.5166 O   0  0  0  0  0  0  0  0  0  0  0  0
   15.5279   -1.4259   15.0679 C   0  0  0  0  0  0  0  0  0  0  0  0
   16.6298   -2.0822   15.7454 O   0  0  0  0  0  0  0  0  0  0  0  0
   16.4039   -3.2507   16.4884 C   0  0  0  0  0  0  0  0  0  0  0  0
   16.4678   -2.9152   17.8015 F   0  0  0  0  0  0  0  0  0  0  0  0
   17.4520   -4.0805   16.2630 F   0  0  0  0  0  0  0  0  0  0  0  0
   15.1187   -2.2156   11.1640 H   0  0  0  0  0  0  0  0  0  0  0  0
   15.3626   -3.4811   12.2593 H   0  0  0  0  0  0  0  0  0  0  0  0
   15.5254   -0.0054   13.4118 H   0  0  0  0  0  0  0  0  0  0  0  0
   18.2018   -0.4692   14.7975 H   0  0  0  0  0  0  0  0  0  0  0  0
   17.7039    0.9051   13.8543 H   0  0  0  0  0  0  0  0  0  0  0  0
   16.5414    1.8915   15.6021 H   0  0  0  0  0  0  0  0  0  0  0  0
   17.8515    1.1356   16.4642 H   0  0  0  0  0  0  0  0  0  0  0  0
   15.5485    0.9848   17.5861 H   0  0  0  0  0  0  0  0  0  0  0  0
   16.4097   -0.5041   17.4801 H   0  0  0  0  0  0  0  0  0  0  0  0
   14.3459   -2.4217   18.0979 H   0  0  0  0  0  0  0  0  0  0  0  0
   12.7197   -4.2227   17.5964 H   0  0  0  0  0  0  0  0  0  0  0  0
   11.0532   -3.9455   15.7843 H   0  0  0  0  0  0  0  0  0  0  0  0
   10.8266   -1.7704   14.6130 H   0  0  0  0  0  0  0  0  0  0  0  0
   12.6404    0.0225   13.8622 H   0  0  0  0  0  0  0  0  0  0  0  0
   14.4516    1.2140   14.4524 H   0  0  0  0  0  0  0  0  0  0  0  0
   14.5112    2.7467   16.2213 H   0  0  0  0  0  0  0  0  0  0  0  0
   12.8395    2.6844   15.6714 H   0  0  0  0  0  0  0  0  0  0  0  0
   12.5689    2.5759   17.7550 H   0  0  0  0  0  0  0  0  0  0  0  0
   14.8525   -2.1842   14.6577 H   0  0  0  0  0  0  0  0  0  0  0  0
   15.4830   -3.7825   16.2424 H   0  0  0  0  0  0  0  0  0  0  0  0
  1  2  1  0
  2  3  2  0
  2  4  2  0
  2  5  1  0
  5  6  1  0
  6  7  1  0
  7  8  1  0
  8  9  1  0
  9 10  1  0
 10 11  2  0
 11 12  1  0
 12 13  2  0
 13 14  1  0
 14 15  2  0
 15 16  1  0
 16 17  1  0
 17 18  1  0
 18 19  1  0
  9 20  1  0
 20 21  1  0
 21 22  1  0
 22 23  1  0
 22 24  1  0
 20  5  1  0
 17  9  1  0
 15 10  1  0
  1 25  1  0
  1 26  1  0
  5 27  1  0
  6 28  1  0
  6 29  1  0
  7 30  1  0
  7 31  1  0
  8 32  1  0
  8 33  1  0
 11 34  1  0
 12 35  1  0
 13 36  1  0
 14 37  1  0
 16 38  1  0
 17 39  1  0
 18 40  1  0
 18 41  1  0
 19 42  1  0
 20 43  1  0
 22 44  1  0
M  END
>  <Energy>  (124) 
11.342320435107499

>  <compound_id>  (124) 
661

>  <target_id>  (124) 
1

>  <reference_id>  (124) 
103

>  <inspiration_ids>  (124) 
[103, 12]

>  <energy_score>  (124) 
-47.0055874467038

>  <distance_score>  (124) 
1.6705343973330153

>  <path>  (124) 
/opt/xchem-fragalysis-2/maxwin/BulkDock/SCRATCH/505734/C661-P103/C661-P103.minimised.mol

>  <scratch_subdir>  (124) 
/opt/xchem-fragalysis-2/maxwin/BulkDock/SCRATCH/505734/C661-P103

>  <fragmenstein_runtime>  (124) 
6.963932514190674

>  <fragmenstein_outcome>  (124) 
too moved

>  <fragmenstein_mode>  (124) 
expansion

>  <fragmenstein_error>  (124) 


$$$$
C661-P12
     RDKit          3D

 44 46  0  0  0  0  0  0  0  0999 V2000
   15.3372   -2.4123   12.0832 N   0  0  0  0  0  0  0  0  0  0  0  0
   16.8201   -1.7884   12.5799 S   0  0  0  0  0  0  0  0  0  0  0  0
   17.5955   -2.8966   13.0748 O   0  0  0  0  0  0  0  0  0  0  0  0
   17.2483   -1.0308   11.4292 O   0  0  0  0  0  0  0  0  0  0  0  0
   16.3249   -0.6742   13.9055 C   0  0  0  0  0  0  0  0  0  0  0  0
   17.4772    0.0886   14.5722 C   0  0  0  0  0  0  0  0  0  0  0  0
   17.0965    0.8213   15.8999 C   0  0  0  0  0  0  0  0  0  0  0  0
   16.0039    0.2026   16.8265 C   0  0  0  0  0  0  0  0  0  0  0  0
   14.8704   -0.3343   15.9541 C   0  0  0  0  0  0  0  0  0  0  0  0
   13.6491   -1.0883   16.4327 C   0  0  0  0  0  0  0  0  0  0  0  0
   13.5920   -2.2230   17.2179 C   0  0  0  0  0  0  0  0  0  0  0  0
   12.6210   -3.1781   16.9136 C   0  0  0  0  0  0  0  0  0  0  0  0
   11.6520   -2.9294   15.9331 C   0  0  0  0  0  0  0  0  0  0  0  0
   11.5829   -1.6912   15.3099 C   0  0  0  0  0  0  0  0  0  0  0  0
   12.6034   -0.7946   15.5472 C   0  0  0  0  0  0  0  0  0  0  0  0
   12.7465    0.4286   14.8619 N   0  0  0  0  0  0  0  0  0  0  0  0
   14.0995    0.8913   15.2497 C   0  0  0  0  0  0  0  0  0  0  0  0
   13.9302    2.2176   16.0653 C   0  0  0  0  0  0  0  0  0  0  0  0
   13.2488    2.0510   17.2956 O   0  0  0  0  0  0  0  0  0  0  0  0
   15.5808   -1.4214   14.9971 C   0  0  0  0  0  0  0  0  0  0  0  0
   16.6412   -2.1350   15.6823 O   0  0  0  0  0  0  0  0  0  0  0  0
   16.3547   -3.2975   16.4103 C   0  0  0  0  0  0  0  0  0  0  0  0
   16.4270   -2.9796   17.7276 F   0  0  0  0  0  0  0  0  0  0  0  0
   17.3595   -4.1780   16.1831 F   0  0  0  0  0  0  0  0  0  0  0  0
   15.1788   -2.1746   11.1016 H   0  0  0  0  0  0  0  0  0  0  0  0
   15.3797   -3.4373   12.2064 H   0  0  0  0  0  0  0  0  0  0  0  0
   15.6862    0.0248   13.3640 H   0  0  0  0  0  0  0  0  0  0  0  0
   18.3079   -0.5971   14.7857 H   0  0  0  0  0  0  0  0  0  0  0  0
   17.8922    0.8190   13.8663 H   0  0  0  0  0  0  0  0  0  0  0  0
   18.0094    0.9711   16.4897 H   0  0  0  0  0  0  0  0  0  0  0  0
   16.7755    1.8296   15.6152 H   0  0  0  0  0  0  0  0  0  0  0  0
   15.6601    0.9455   17.5529 H   0  0  0  0  0  0  0  0  0  0  0  0
   16.4492   -0.5817   17.4467 H   0  0  0  0  0  0  0  0  0  0  0  0
   14.3336   -2.4266   17.9809 H   0  0  0  0  0  0  0  0  0  0  0  0
   12.6090   -4.1274   17.4457 H   0  0  0  0  0  0  0  0  0  0  0  0
   10.9280   -3.6979   15.6808 H   0  0  0  0  0  0  0  0  0  0  0  0
   10.7994   -1.4761   14.5911 H   0  0  0  0  0  0  0  0  0  0  0  0
   12.6229    0.2702   13.8617 H   0  0  0  0  0  0  0  0  0  0  0  0
   14.6073    1.2188   14.3424 H   0  0  0  0  0  0  0  0  0  0  0  0
   14.8926    2.6893   16.2739 H   0  0  0  0  0  0  0  0  0  0  0  0
   13.3549    2.9370   15.4700 H   0  0  0  0  0  0  0  0  0  0  0  0
   12.4140    1.6128   17.0469 H   0  0  0  0  0  0  0  0  0  0  0  0
   14.8753   -2.1398   14.5674 H   0  0  0  0  0  0  0  0  0  0  0  0
   15.4102   -3.7797   16.1530 H   0  0  0  0  0  0  0  0  0  0  0  0
  1  2  1  0
  2  3  2  0
  2  4  2  0
  2  5  1  0
  5  6  1  0
  6  7  1  0
  7  8  1  0
  8  9  1  0
  9 10  1  0
 10 11  2  0
 11 12  1  0
 12 13  2  0
 13 14  1  0
 14 15  2  0
 15 16  1  0
 16 17  1  0
 17 18  1  0
 18 19  1  0
  9 20  1  0
 20 21  1  0
 21 22  1  0
 22 23  1  0
 22 24  1  0
 20  5  1  0
 17  9  1  0
 15 10  1  0
  1 25  1  0
  1 26  1  0
  5 27  1  0
  6 28  1  0
  6 29  1  0
  7 30  1  0
  7 31  1  0
  8 32  1  0
  8 33  1  0
 11 34  1  0
 12 35  1  0
 13 36  1  0
 14 37  1  0
 16 38  1  0
 17 39  1  0
 18 40  1  0
 18 41  1  0
 19 42  1  0
 20 43  1  0
 22 44  1  0
M  END
>  <Energy>  (125) 
5.837635581943962

>  <compound_id>  (125) 
661

>  <target_id>  (125) 
1

>  <reference_id>  (125) 
12

>  <inspiration_ids>  (125) 
[103, 12]

>  <energy_score>  (125) 
-52.51027229986702

>  <distance_score>  (125) 
1.6507057775515432

>  <path>  (125) 
/opt/xchem-fragalysis-2/maxwin/BulkDock/SCRATCH/505734/C661-P12/C661-P12.minimised.mol

>  <scratch_subdir>  (125) 
/opt/xchem-fragalysis-2/maxwin/BulkDock/SCRATCH/505734/C661-P12

>  <fragmenstein_runtime>  (125) 
5.957288980484009

>  <fragmenstein_outcome>  (125) 
too moved

>  <fragmenstein_mode>  (125) 
expansion

>  <fragmenstein_error>  (125) 


$$$$
C3169-P103
     RDKit          3D

 22 24  0  0  0  0  0  0  0  0999 V2000
   13.5297    2.8074   18.1192 O   0  0  0  0  0  0  0  0  0  0  0  0
   14.3294    2.1911   17.1177 C   0  0  0  0  0  0  0  0  0  0  0  0
   13.6247    0.9774   16.6530 C   0  0  0  0  0  0  0  0  0  0  0  0
   12.5172    0.9598   15.8696 N   0  0  0  0  0  0  0  0  0  0  0  0
   12.1889   -0.3783   15.6887 C   0  0  0  0  0  0  0  0  0  0  0  0
   11.2314   -1.1599   15.0547 C   0  0  0  0  0  0  0  0  0  0  0  0
   11.3416   -2.5809   15.2340 C   0  0  0  0  0  0  0  0  0  0  0  0
   12.3465   -3.2258   16.0289 C   0  0  0  0  0  0  0  0  0  0  0  0
   13.2935   -2.3939   16.6234 C   0  0  0  0  0  0  0  0  0  0  0  0
   14.4499   -2.3410   17.4569 C   0  0  0  0  0  0  0  0  0  0  0  0
   15.0786   -3.3871   18.0148 O   0  0  0  0  0  0  0  0  0  0  0  0
   14.8487   -0.9966   17.6497 C   0  0  0  0  0  0  0  0  0  0  0  0
   13.9591   -0.2930   16.9425 N   0  0  0  0  0  0  0  0  0  0  0  0
   13.0995   -1.0860   16.3784 C   0  0  0  0  0  0  0  0  0  0  0  0
   12.6242    2.9023   17.7614 H   0  0  0  0  0  0  0  0  0  0  0  0
   14.4663    2.8996   16.2953 H   0  0  0  0  0  0  0  0  0  0  0  0
   15.3098    1.9665   17.5463 H   0  0  0  0  0  0  0  0  0  0  0  0
   10.4418   -0.7234   14.4552 H   0  0  0  0  0  0  0  0  0  0  0  0
   10.6012   -3.2083   14.7369 H   0  0  0  0  0  0  0  0  0  0  0  0
   12.3506   -4.3008   16.1587 H   0  0  0  0  0  0  0  0  0  0  0  0
   14.6177   -4.2073   17.7732 H   0  0  0  0  0  0  0  0  0  0  0  0
   15.6559   -0.5691   18.2263 H   0  0  0  0  0  0  0  0  0  0  0  0
  1  2  1  0
  2  3  1  0
  3  4  2  0
  4  5  1  0
  5  6  1  0
  6  7  2  0
  7  8  1  0
  8  9  2  0
  9 10  1  0
 10 11  1  0
 10 12  2  0
 12 13  1  0
 13 14  1  0
 13  3  1  0
 14  5  2  0
 14  9  1  0
  1 15  1  0
  2 16  1  0
  2 17  1  0
  6 18  1  0
  7 19  1  0
  8 20  1  0
 11 21  1  0
 12 22  1  0
M  END
>  <Energy>  (126) 
36.20475645843738

>  <compound_id>  (126) 
3169

>  <target_id>  (126) 
1

>  <reference_id>  (126) 
103

>  <inspiration_ids>  (126) 
[103, 20]

>  <energy_score>  (126) 
-31.07146475951494

>  <distance_score>  (126) 
0.7986534692585862

>  <path>  (126) 
/opt/xchem-fragalysis-2/maxwin/BulkDock/SCRATCH/505734/C3169-P103/C3169-P103.minimised.mol

>  <scratch_subdir>  (126) 
/opt/xchem-fragalysis-2/maxwin/BulkDock/SCRATCH/505734/C3169-P103

>  <fragmenstein_runtime>  (126) 
0.8790931701660156

>  <fragmenstein_outcome>  (126) 
acceptable

>  <fragmenstein_mode>  (126) 
expansion

>  <fragmenstein_error>  (126) 


$$$$
C3169-P20
     RDKit          3D

 22 24  0  0  0  0  0  0  0  0999 V2000
   13.6666    2.8603   17.9158 O   0  0  0  0  0  0  0  0  0  0  0  0
   14.5153    2.1665   17.0103 C   0  0  0  0  0  0  0  0  0  0  0  0
   13.7955    0.9614   16.5465 C   0  0  0  0  0  0  0  0  0  0  0  0
   12.6835    0.9572   15.7689 N   0  0  0  0  0  0  0  0  0  0  0  0
   12.3222   -0.3764   15.6151 C   0  0  0  0  0  0  0  0  0  0  0  0
   11.3296   -1.1436   15.0202 C   0  0  0  0  0  0  0  0  0  0  0  0
   11.4019   -2.5627   15.2318 C   0  0  0  0  0  0  0  0  0  0  0  0
   12.4052   -3.2195   16.0193 C   0  0  0  0  0  0  0  0  0  0  0  0
   13.3866   -2.4016   16.5767 C   0  0  0  0  0  0  0  0  0  0  0  0
   14.5563   -2.3603   17.3929 C   0  0  0  0  0  0  0  0  0  0  0  0
   15.1728   -3.4081   17.9599 O   0  0  0  0  0  0  0  0  0  0  0  0
   14.9839   -1.0221   17.5630 C   0  0  0  0  0  0  0  0  0  0  0  0
   14.1080   -0.3119   16.8464 N   0  0  0  0  0  0  0  0  0  0  0  0
   13.2257   -1.0946   16.3035 C   0  0  0  0  0  0  0  0  0  0  0  0
   12.7871    2.9275   17.4976 H   0  0  0  0  0  0  0  0  0  0  0  0
   14.7441    2.8280   16.1696 H   0  0  0  0  0  0  0  0  0  0  0  0
   15.4490    1.9262   17.5258 H   0  0  0  0  0  0  0  0  0  0  0  0
   10.5369   -0.6944   14.4350 H   0  0  0  0  0  0  0  0  0  0  0  0
   10.6320   -3.1788   14.7678 H   0  0  0  0  0  0  0  0  0  0  0  0
   12.3789   -4.2918   16.1730 H   0  0  0  0  0  0  0  0  0  0  0  0
   14.7277   -4.2287   17.6948 H   0  0  0  0  0  0  0  0  0  0  0  0
   15.8044   -0.6036   18.1272 H   0  0  0  0  0  0  0  0  0  0  0  0
  1  2  1  0
  2  3  1  0
  3  4  2  0
  4  5  1  0
  5  6  1  0
  6  7  2  0
  7  8  1  0
  8  9  2  0
  9 10  1  0
 10 11  1  0
 10 12  2  0
 12 13  1  0
 13 14  1  0
 13  3  1  0
 14  5  2  0
 14  9  1  0
  1 15  1  0
  2 16  1  0
  2 17  1  0
  6 18  1  0
  7 19  1  0
  8 20  1  0
 11 21  1  0
 12 22  1  0
M  END
>  <Energy>  (127) 
36.047546347973565

>  <compound_id>  (127) 
3169

>  <target_id>  (127) 
1

>  <reference_id>  (127) 
20

>  <inspiration_ids>  (127) 
[103, 20]

>  <energy_score>  (127) 
-31.228674869977098

>  <distance_score>  (127) 
0.7959758451811149

>  <path>  (127) 
/opt/xchem-fragalysis-2/maxwin/BulkDock/SCRATCH/505734/C3169-P20/C3169-P20.minimised.mol

>  <scratch_subdir>  (127) 
/opt/xchem-fragalysis-2/maxwin/BulkDock/SCRATCH/505734/C3169-P20

>  <fragmenstein_runtime>  (127) 
0.8352131843566895

>  <fragmenstein_outcome>  (127) 
acceptable

>  <fragmenstein_mode>  (127) 
expansion

>  <fragmenstein_error>  (127) 


$$$$
C3177-P103
     RDKit          3D

 37 38  0  0  0  0  0  0  0  0999 V2000
   17.5076   -4.1818   17.9963 C   0  0  0  0  0  0  0  0  0  0  0  0
   16.8775   -3.4391   16.6196 C   0  0  0  0  0  0  0  0  0  0  0  0
   17.6553   -2.9417   15.2301 N   0  0  0  0  0  0  0  0  0  0  0  0
   17.2895   -2.2793   14.0803 C   0  0  0  0  0  0  0  0  0  0  0  0
   17.2859   -1.0811   13.8418 O   0  0  0  0  0  0  0  0  0  0  0  0
   16.1670   -3.1111   16.2520 N   0  0  0  0  0  0  0  0  0  0  0  0
   15.1380   -2.2290   16.0720 C   0  0  0  0  0  0  0  0  0  0  0  0
   15.2888   -0.7906   15.7422 C   0  0  0  0  0  0  0  0  0  0  0  0
   14.2147   -0.0117   15.6862 C   0  0  0  0  0  0  0  0  0  0  0  0
   12.8585   -0.5117   15.9263 C   0  0  0  0  0  0  0  0  0  0  0  0
   11.9721    0.4414   15.9084 N   0  0  0  0  0  0  0  0  0  0  0  0
   12.7199    1.6064   15.6717 C   0  0  0  0  0  0  0  0  0  0  0  0
   12.0006    2.9222   15.6280 C   0  0  0  0  0  0  0  0  0  0  0  0
   10.6896    2.7234   15.1030 O   0  0  0  0  0  0  0  0  0  0  0  0
   14.0414    1.3983   15.5064 C   0  0  0  0  0  0  0  0  0  0  0  0
   15.1485    2.3504   15.2417 C   0  0  0  0  0  0  0  0  0  0  0  0
   12.6663   -1.9237   16.2323 C   0  0  0  0  0  0  0  0  0  0  0  0
   13.7380   -2.7020   16.4200 C   0  0  0  0  0  0  0  0  0  0  0  0
   13.5820   -4.0070   16.8561 O   0  0  0  0  0  0  0  0  0  0  0  0
   13.8454   -4.0799   18.2558 C   0  0  0  0  0  0  0  0  0  0  0  0
   14.1495   -5.3756   18.5280 F   0  0  0  0  0  0  0  0  0  0  0  0
   18.5805   -4.3755   17.8806 H   0  0  0  0  0  0  0  0  0  0  0  0
   17.3284   -3.5461   18.8726 H   0  0  0  0  0  0  0  0  0  0  0  0
   16.9722   -5.1227   18.1747 H   0  0  0  0  0  0  0  0  0  0  0  0
   17.6450   -2.6150   17.0907 H   0  0  0  0  0  0  0  0  0  0  0  0
   17.2206   -4.5320   16.2083 H   0  0  0  0  0  0  0  0  0  0  0  0
   16.8903   -3.0001   13.3476 H   0  0  0  0  0  0  0  0  0  0  0  0
   16.2827   -0.3702   15.6811 H   0  0  0  0  0  0  0  0  0  0  0  0
   11.9032    3.3325   16.6365 H   0  0  0  0  0  0  0  0  0  0  0  0
   12.5075    3.6542   14.9943 H   0  0  0  0  0  0  0  0  0  0  0  0
   10.4966    1.7801   15.2782 H   0  0  0  0  0  0  0  0  0  0  0  0
   15.6423    2.1107   14.2943 H   0  0  0  0  0  0  0  0  0  0  0  0
   14.7963    3.3841   15.1803 H   0  0  0  0  0  0  0  0  0  0  0  0
   15.8955    2.3057   16.0412 H   0  0  0  0  0  0  0  0  0  0  0  0
   11.6585   -2.2762   16.3886 H   0  0  0  0  0  0  0  0  0  0  0  0
   12.9598   -3.8072   18.8278 H   0  0  0  0  0  0  0  0  0  0  0  0
   14.6925   -3.4657   18.5756 H   0  0  0  0  0  0  0  0  0  0  0  0
  1  2  1  0
  2  3  1  0
  3  4  1  0
  4  5  2  0
  3  6  1  0
  6  7  2  3
  7  8  1  0
  8  9  2  0
  9 10  1  0
 10 11  2  0
 11 12  1  0
 12 13  1  0
 13 14  1  0
 12 15  2  0
 15 16  1  0
 10 17  1  0
 17 18  2  0
 18 19  1  0
 19 20  1  0
 20 21  1  0
 18  7  1  0
 15  9  1  0
  1 22  1  0
  1 23  1  0
  1 24  1  0
  2 25  1  0
  2 26  1  0
  4 27  1  0
  8 28  1  0
 13 29  1  0
 13 30  1  0
 14 31  1  0
 16 32  1  0
 16 33  1  0
 16 34  1  0
 17 35  1  0
 20 36  1  0
 20 37  1  0
M  END
>  <Energy>  (128) 
588.02425544213338

>  <compound_id>  (128) 
3177

>  <target_id>  (128) 
1

>  <reference_id>  (128) 
103

>  <inspiration_ids>  (128) 
[103, 61]

>  <energy_score>  (128) 
464.2551109013291

>  <distance_score>  (128) 
2.9551764215268057

>  <path>  (128) 
/opt/xchem-fragalysis-2/maxwin/BulkDock/SCRATCH/505734/C3177-P103/C3177-P103.minimised.mol

>  <scratch_subdir>  (128) 
/opt/xchem-fragalysis-2/maxwin/BulkDock/SCRATCH/505734/C3177-P103

>  <fragmenstein_runtime>  (128) 
3.1468617916107178

>  <fragmenstein_outcome>  (128) 
too moved

>  <fragmenstein_mode>  (128) 
expansion

>  <fragmenstein_error>  (128) 


$$$$
C3177-P61
     RDKit          3D

 37 38  0  0  0  0  0  0  0  0999 V2000
   16.9660   -4.2898   15.9098 C   0  0  0  0  0  0  0  0  0  0  0  0
   17.0575   -2.6754   15.3967 C   0  0  0  0  0  0  0  0  0  0  0  0
   17.1506   -2.3979   13.5716 N   0  0  0  0  0  0  0  0  0  0  0  0
   16.2863   -1.9508   12.5936 C   0  0  0  0  0  0  0  0  0  0  0  0
   16.0890   -0.8113   12.1952 O   0  0  0  0  0  0  0  0  0  0  0  0
   16.3082   -2.3937   15.0175 N   0  0  0  0  0  0  0  0  0  0  0  0
   15.2254   -1.5415   15.1069 C   0  0  0  0  0  0  0  0  0  0  0  0
   15.2992   -0.1019   14.7311 C   0  0  0  0  0  0  0  0  0  0  0  0
   14.4316    0.7457   15.2718 C   0  0  0  0  0  0  0  0  0  0  0  0
   13.3650    0.3121   16.1723 C   0  0  0  0  0  0  0  0  0  0  0  0
   12.7324    1.3159   16.7045 N   0  0  0  0  0  0  0  0  0  0  0  0
   13.3476    2.4511   16.1629 C   0  0  0  0  0  0  0  0  0  0  0  0
   12.9029    3.8144   16.6064 C   0  0  0  0  0  0  0  0  0  0  0  0
   11.4901    3.8569   16.7597 O   0  0  0  0  0  0  0  0  0  0  0  0
   14.3348    2.1756   15.2832 C   0  0  0  0  0  0  0  0  0  0  0  0
   15.2305    3.0713   14.5095 C   0  0  0  0  0  0  0  0  0  0  0  0
   13.1407   -1.1132   16.3767 C   0  0  0  0  0  0  0  0  0  0  0  0
   14.0107   -2.0094   15.8872 C   0  0  0  0  0  0  0  0  0  0  0  0
   13.9177   -3.3777   16.0301 O   0  0  0  0  0  0  0  0  0  0  0  0
   12.9076   -3.9032   16.8705 C   0  0  0  0  0  0  0  0  0  0  0  0
   13.1452   -3.4557   18.1278 F   0  0  0  0  0  0  0  0  0  0  0  0
   16.7758   -4.2969   16.9874 H   0  0  0  0  0  0  0  0  0  0  0  0
   16.1536   -4.8088   15.3916 H   0  0  0  0  0  0  0  0  0  0  0  0
   17.9039   -4.8123   15.6927 H   0  0  0  0  0  0  0  0  0  0  0  0
   17.4897   -1.8543   16.2044 H   0  0  0  0  0  0  0  0  0  0  0  0
   18.2125   -2.8398   15.3021 H   0  0  0  0  0  0  0  0  0  0  0  0
   15.6765   -2.7882   12.2186 H   0  0  0  0  0  0  0  0  0  0  0  0
   16.1606    0.2577   14.1850 H   0  0  0  0  0  0  0  0  0  0  0  0
   13.3634    4.0722   17.5658 H   0  0  0  0  0  0  0  0  0  0  0  0
   13.1725    4.5859   15.8807 H   0  0  0  0  0  0  0  0  0  0  0  0
   11.3071    3.3349   17.5687 H   0  0  0  0  0  0  0  0  0  0  0  0
   15.1068    2.9004   13.4351 H   0  0  0  0  0  0  0  0  0  0  0  0
   15.0272    4.1282   14.7017 H   0  0  0  0  0  0  0  0  0  0  0  0
   16.2785    2.8879   14.7692 H   0  0  0  0  0  0  0  0  0  0  0  0
   12.2663   -1.3729   16.9489 H   0  0  0  0  0  0  0  0  0  0  0  0
   12.9923   -4.9887   16.8690 H   0  0  0  0  0  0  0  0  0  0  0  0
   11.9038   -3.6201   16.5399 H   0  0  0  0  0  0  0  0  0  0  0  0
  1  2  1  0
  2  3  1  0
  3  4  1  0
  4  5  2  0
  3  6  1  0
  6  7  2  3
  7  8  1  0
  8  9  2  0
  9 10  1  0
 10 11  2  0
 11 12  1  0
 12 13  1  0
 13 14  1  0
 12 15  2  0
 15 16  1  0
 10 17  1  0
 17 18  2  0
 18 19  1  0
 19 20  1  0
 20 21  1  0
 18  7  1  0
 15  9  1  0
  1 22  1  0
  1 23  1  0
  1 24  1  0
  2 25  1  0
  2 26  1  0
  4 27  1  0
  8 28  1  0
 13 29  1  0
 13 30  1  0
 14 31  1  0
 16 32  1  0
 16 33  1  0
 16 34  1  0
 17 35  1  0
 20 36  1  0
 20 37  1  0
M  END
>  <Energy>  (129) 
561.52600918428686

>  <compound_id>  (129) 
3177

>  <target_id>  (129) 
1

>  <reference_id>  (129) 
61

>  <inspiration_ids>  (129) 
[103, 61]

>  <energy_score>  (129) 
437.75686464347933

>  <distance_score>  (129) 
3.0577974184320897

>  <path>  (129) 
/opt/xchem-fragalysis-2/maxwin/BulkDock/SCRATCH/505734/C3177-P61/C3177-P61.minimised.mol

>  <scratch_subdir>  (129) 
/opt/xchem-fragalysis-2/maxwin/BulkDock/SCRATCH/505734/C3177-P61

>  <fragmenstein_runtime>  (129) 
2.9326727390289307

>  <fragmenstein_outcome>  (129) 
too moved

>  <fragmenstein_mode>  (129) 
expansion

>  <fragmenstein_error>  (129) 


$$$$
C3179-P103
     RDKit          3D

 48 50  0  0  0  0  0  0  0  0999 V2000
   17.7303   -3.5173   16.3483 C   0  0  0  0  0  0  0  0  0  0  0  0
   16.7250   -3.5779   17.5025 C   0  0  0  0  0  0  0  0  0  0  0  0
   15.3667   -4.0924   17.0465 C   0  0  0  0  0  0  0  0  0  0  0  0
   14.5447   -3.0966   16.2054 C   0  0  0  0  0  0  0  0  0  0  0  0
   13.0581   -3.4109   16.4124 C   0  0  0  0  0  0  0  0  0  0  0  0
   12.1775   -2.5072   15.5753 C   0  0  0  0  0  0  0  0  0  0  0  0
   12.4008   -1.0626   15.9885 C   0  0  0  0  0  0  0  0  0  0  0  0
   13.8646   -0.6260   15.8412 C   0  0  0  0  0  0  0  0  0  0  0  0
   14.1517    0.8216   16.3315 C   0  0  0  0  0  0  0  0  0  0  0  0
   13.0924    1.8288   15.8878 C   0  0  0  0  0  0  0  0  0  0  0  0
   13.6648    3.5313   15.8700 S   0  0  0  0  0  0  0  0  0  0  0  0
   12.7968    4.3098   17.2100 C   0  0  0  0  0  0  0  0  0  0  0  0
   13.1644    4.1346   14.6465 O   0  0  0  0  0  0  0  0  0  0  0  0
   15.0889    3.5745   16.1584 O   0  0  0  0  0  0  0  0  0  0  0  0
   14.3658    0.8720   17.8546 C   0  0  0  0  0  0  0  0  0  0  0  0
   14.6260    2.1796   18.3310 O   0  0  0  0  0  0  0  0  0  0  0  0
   15.5301    0.0104   18.2770 C   0  0  0  0  0  0  0  0  0  0  0  0
   15.2978   -1.4403   17.9046 C   0  0  0  0  0  0  0  0  0  0  0  0
   16.5821   -2.2357   18.2307 C   0  0  0  0  0  0  0  0  0  0  0  0
   14.8994   -1.6212   16.4374 C   0  0  0  0  0  0  0  0  0  0  0  0
   17.4306   -2.8206   15.5619 H   0  0  0  0  0  0  0  0  0  0  0  0
   17.8460   -4.5053   15.8892 H   0  0  0  0  0  0  0  0  0  0  0  0
   18.7155   -3.2069   16.7127 H   0  0  0  0  0  0  0  0  0  0  0  0
   17.1362   -4.3025   18.2186 H   0  0  0  0  0  0  0  0  0  0  0  0
   14.8020   -4.3763   17.9450 H   0  0  0  0  0  0  0  0  0  0  0  0
   15.4996   -5.0114   16.4686 H   0  0  0  0  0  0  0  0  0  0  0  0
   14.8085   -3.2619   15.1606 H   0  0  0  0  0  0  0  0  0  0  0  0
   12.8532   -4.4566   16.1674 H   0  0  0  0  0  0  0  0  0  0  0  0
   12.7952   -3.2923   17.4710 H   0  0  0  0  0  0  0  0  0  0  0  0
   11.1259   -2.7747   15.7171 H   0  0  0  0  0  0  0  0  0  0  0  0
   12.3988   -2.6350   14.5092 H   0  0  0  0  0  0  0  0  0  0  0  0
   11.7452   -0.4276   15.3825 H   0  0  0  0  0  0  0  0  0  0  0  0
   12.0967   -0.9337   17.0248 H   0  0  0  0  0  0  0  0  0  0  0  0
   14.0448   -0.6210   14.7545 H   0  0  0  0  0  0  0  0  0  0  0  0
   15.0999    1.1126   15.8571 H   0  0  0  0  0  0  0  0  0  0  0  0
   12.1870    1.7866   16.4998 H   0  0  0  0  0  0  0  0  0  0  0  0
   12.7980    1.6242   14.8514 H   0  0  0  0  0  0  0  0  0  0  0  0
   11.7320    4.3071   16.9694 H   0  0  0  0  0  0  0  0  0  0  0  0
   13.1485    5.3419   17.2793 H   0  0  0  0  0  0  0  0  0  0  0  0
   12.9802    3.8001   18.1508 H   0  0  0  0  0  0  0  0  0  0  0  0
   13.4662    0.5279   18.3625 H   0  0  0  0  0  0  0  0  0  0  0  0
   15.3762    2.5521   17.8166 H   0  0  0  0  0  0  0  0  0  0  0  0
   16.4506    0.3928   17.8146 H   0  0  0  0  0  0  0  0  0  0  0  0
   15.6897    0.1018   19.3596 H   0  0  0  0  0  0  0  0  0  0  0  0
   14.4850   -1.8222   18.5375 H   0  0  0  0  0  0  0  0  0  0  0  0
   17.4756   -1.6264   18.0429 H   0  0  0  0  0  0  0  0  0  0  0  0
   16.5846   -2.4238   19.3133 H   0  0  0  0  0  0  0  0  0  0  0  0
   15.8146   -1.4115   15.8638 H   0  0  0  0  0  0  0  0  0  0  0  0
  1  2  1  0
  2  3  1  0
  3  4  1  0
  4  5  1  0
  5  6  1  0
  6  7  1  0
  7  8  1  0
  8  9  1  0
  9 10  1  0
 10 11  1  0
 11 12  1  0
 11 13  2  0
 11 14  2  0
  9 15  1  0
 15 16  1  0
 15 17  1  0
 17 18  1  0
 18 19  1  0
 18 20  1  0
 19  2  1  0
 20  4  1  0
 20  8  1  0
  1 21  1  0
  1 22  1  0
  1 23  1  0
  2 24  1  0
  3 25  1  0
  3 26  1  0
  4 27  1  0
  5 28  1  0
  5 29  1  0
  6 30  1  0
  6 31  1  0
  7 32  1  0
  7 33  1  0
  8 34  1  0
  9 35  1  0
 10 36  1  0
 10 37  1  0
 12 38  1  0
 12 39  1  0
 12 40  1  0
 15 41  1  0
 16 42  1  0
 17 43  1  0
 17 44  1  0
 18 45  1  0
 19 46  1  0
 19 47  1  0
 20 48  1  0
M  END
>  <Energy>  (130) 
44.682101525089948

>  <compound_id>  (130) 
3179

>  <target_id>  (130) 
1

>  <reference_id>  (130) 
103

>  <inspiration_ids>  (130) 
[103, 66]

>  <energy_score>  (130) 
-53.09241640459476

>  <distance_score>  (130) 
1.420455861114111

>  <path>  (130) 
/opt/xchem-fragalysis-2/maxwin/BulkDock/SCRATCH/505734/C3179-P103/C3179-P103.minimised.mol

>  <scratch_subdir>  (130) 
/opt/xchem-fragalysis-2/maxwin/BulkDock/SCRATCH/505734/C3179-P103

>  <fragmenstein_runtime>  (130) 
3.952113628387451

>  <fragmenstein_outcome>  (130) 
too moved

>  <fragmenstein_mode>  (130) 
expansion

>  <fragmenstein_error>  (130) 


$$$$
C3179-P66
     RDKit          3D

 48 50  0  0  0  0  0  0  0  0999 V2000
   16.7811   -4.9243   17.8681 C   0  0  0  0  0  0  0  0  0  0  0  0
   16.2574   -3.4944   18.0040 C   0  0  0  0  0  0  0  0  0  0  0  0
   14.7260   -3.4309   17.8665 C   0  0  0  0  0  0  0  0  0  0  0  0
   14.2571   -3.2284   16.4154 C   0  0  0  0  0  0  0  0  0  0  0  0
   12.7257   -3.2500   16.3318 C   0  0  0  0  0  0  0  0  0  0  0  0
   12.0900   -2.5903   15.1081 C   0  0  0  0  0  0  0  0  0  0  0  0
   12.7398   -1.2758   14.6704 C   0  0  0  0  0  0  0  0  0  0  0  0
   13.8864   -0.8330   15.5836 C   0  0  0  0  0  0  0  0  0  0  0  0
   14.5218    0.5299   15.1617 C   0  0  0  0  0  0  0  0  0  0  0  0
   14.5362    1.5374   16.3384 C   0  0  0  0  0  0  0  0  0  0  0  0
   13.6571    3.0411   15.9612 S   0  0  0  0  0  0  0  0  0  0  0  0
   13.6085    3.8764   17.5300 C   0  0  0  0  0  0  0  0  0  0  0  0
   12.2940    2.6998   15.6056 O   0  0  0  0  0  0  0  0  0  0  0  0
   14.4875    3.8199   15.0638 O   0  0  0  0  0  0  0  0  0  0  0  0
   15.9712    0.3497   14.6728 C   0  0  0  0  0  0  0  0  0  0  0  0
   15.9759   -0.3755   13.4449 O   0  0  0  0  0  0  0  0  0  0  0  0
   16.8499   -0.4002   15.6929 C   0  0  0  0  0  0  0  0  0  0  0  0
   16.0855   -1.4262   16.5448 C   0  0  0  0  0  0  0  0  0  0  0  0
   16.9833   -2.5648   17.0168 C   0  0  0  0  0  0  0  0  0  0  0  0
   14.8865   -1.9778   15.7654 C   0  0  0  0  0  0  0  0  0  0  0  0
   16.5659   -5.3359   16.8768 H   0  0  0  0  0  0  0  0  0  0  0  0
   16.3233   -5.5791   18.6168 H   0  0  0  0  0  0  0  0  0  0  0  0
   17.8655   -4.9547   18.0184 H   0  0  0  0  0  0  0  0  0  0  0  0
   16.4996   -3.1633   19.0230 H   0  0  0  0  0  0  0  0  0  0  0  0
   14.3704   -2.5881   18.4719 H   0  0  0  0  0  0  0  0  0  0  0  0
   14.2645   -4.3283   18.2965 H   0  0  0  0  0  0  0  0  0  0  0  0
   14.6313   -4.0986   15.8661 H   0  0  0  0  0  0  0  0  0  0  0  0
   12.3589   -4.2780   16.4330 H   0  0  0  0  0  0  0  0  0  0  0  0
   12.3444   -2.7222   17.1999 H   0  0  0  0  0  0  0  0  0  0  0  0
   11.0306   -2.4058   15.3277 H   0  0  0  0  0  0  0  0  0  0  0  0
   12.0759   -3.2747   14.2573 H   0  0  0  0  0  0  0  0  0  0  0  0
   13.1134   -1.3909   13.6447 H   0  0  0  0  0  0  0  0  0  0  0  0
   11.9739   -0.4919   14.6254 H   0  0  0  0  0  0  0  0  0  0  0  0
   13.4943   -0.6858   16.5812 H   0  0  0  0  0  0  0  0  0  0  0  0
   13.9324    0.9380   14.3312 H   0  0  0  0  0  0  0  0  0  0  0  0
   15.5524    1.8688   16.5812 H   0  0  0  0  0  0  0  0  0  0  0  0
   14.1243    1.1303   17.2605 H   0  0  0  0  0  0  0  0  0  0  0  0
   13.0696    3.2628   18.2525 H   0  0  0  0  0  0  0  0  0  0  0  0
   13.0910    4.8278   17.3905 H   0  0  0  0  0  0  0  0  0  0  0  0
   14.6325    4.0551   17.8633 H   0  0  0  0  0  0  0  0  0  0  0  0
   16.4304    1.3206   14.4521 H   0  0  0  0  0  0  0  0  0  0  0  0
   15.4418    0.1202   12.7998 H   0  0  0  0  0  0  0  0  0  0  0  0
   17.6679   -0.8973   15.1555 H   0  0  0  0  0  0  0  0  0  0  0  0
   17.3225    0.3201   16.3723 H   0  0  0  0  0  0  0  0  0  0  0  0
   15.7259   -0.8986   17.4402 H   0  0  0  0  0  0  0  0  0  0  0  0
   17.3315   -3.1325   16.1434 H   0  0  0  0  0  0  0  0  0  0  0  0
   17.8840   -2.1651   17.4994 H   0  0  0  0  0  0  0  0  0  0  0  0
   15.2306   -2.3041   14.7740 H   0  0  0  0  0  0  0  0  0  0  0  0
  1  2  1  0
  2  3  1  0
  3  4  1  0
  4  5  1  0
  5  6  1  0
  6  7  1  0
  7  8  1  0
  8  9  1  0
  9 10  1  0
 10 11  1  0
 11 12  1  0
 11 13  2  0
 11 14  2  0
  9 15  1  0
 15 16  1  0
 15 17  1  0
 17 18  1  0
 18 19  1  0
 18 20  1  0
 19  2  1  0
 20  4  1  0
 20  8  1  0
  1 21  1  0
  1 22  1  0
  1 23  1  0
  2 24  1  0
  3 25  1  0
  3 26  1  0
  4 27  1  0
  5 28  1  0
  5 29  1  0
  6 30  1  0
  6 31  1  0
  7 32  1  0
  7 33  1  0
  8 34  1  0
  9 35  1  0
 10 36  1  0
 10 37  1  0
 12 38  1  0
 12 39  1  0
 12 40  1  0
 15 41  1  0
 16 42  1  0
 17 43  1  0
 17 44  1  0
 18 45  1  0
 19 46  1  0
 19 47  1  0
 20 48  1  0
M  END
>  <Energy>  (131) 
57.302353462760962

>  <compound_id>  (131) 
3179

>  <target_id>  (131) 
1

>  <reference_id>  (131) 
66

>  <inspiration_ids>  (131) 
[103, 66]

>  <energy_score>  (131) 
-40.4721644669239

>  <distance_score>  (131) 
1.4325196083176726

>  <path>  (131) 
/opt/xchem-fragalysis-2/maxwin/BulkDock/SCRATCH/505734/C3179-P66/C3179-P66.minimised.mol

>  <scratch_subdir>  (131) 
/opt/xchem-fragalysis-2/maxwin/BulkDock/SCRATCH/505734/C3179-P66

>  <fragmenstein_runtime>  (131) 
3.5295217037200928

>  <fragmenstein_outcome>  (131) 
too moved

>  <fragmenstein_mode>  (131) 
expansion

>  <fragmenstein_error>  (131) 


$$$$
C3182-P103
     RDKit          3D

 24 25  0  0  0  0  0  0  0  0999 V2000
   15.3285    0.3807   17.9691 C   0  0  0  0  0  0  0  0  0  0  0  0
   14.1746    0.2765   17.1091 N   0  0  0  0  0  0  0  0  0  0  0  0
   13.4396    1.3421   16.6277 C   0  0  0  0  0  0  0  0  0  0  0  0
   13.7753    2.7701   16.8757 C   0  0  0  0  0  0  0  0  0  0  0  0
   13.3797    3.0870   18.2025 O   0  0  0  0  0  0  0  0  0  0  0  0
   12.3928    0.9170   15.9484 N   0  0  0  0  0  0  0  0  0  0  0  0
   12.4661   -0.4579   15.9774 C   0  0  0  0  0  0  0  0  0  0  0  0
   11.5576   -1.3933   15.4409 C   0  0  0  0  0  0  0  0  0  0  0  0
   10.3533   -0.9742   14.8768 N   0  0  0  0  0  0  0  0  0  0  0  0
   11.8302   -2.7528   15.6250 C   0  0  0  0  0  0  0  0  0  0  0  0
   12.9630   -3.1700   16.3274 C   0  0  0  0  0  0  0  0  0  0  0  0
   13.8652   -2.2484   16.8722 C   0  0  0  0  0  0  0  0  0  0  0  0
   13.5812   -0.8899   16.6846 C   0  0  0  0  0  0  0  0  0  0  0  0
   16.1069    0.9346   17.4385 H   0  0  0  0  0  0  0  0  0  0  0  0
   15.7021   -0.6124   18.2255 H   0  0  0  0  0  0  0  0  0  0  0  0
   15.0358    0.9044   18.8825 H   0  0  0  0  0  0  0  0  0  0  0  0
   14.8477    2.9570   16.7721 H   0  0  0  0  0  0  0  0  0  0  0  0
   13.2450    3.4286   16.1808 H   0  0  0  0  0  0  0  0  0  0  0  0
   12.3984    3.0590   18.2231 H   0  0  0  0  0  0  0  0  0  0  0  0
   10.0873   -1.4503   14.0038 H   0  0  0  0  0  0  0  0  0  0  0  0
   10.3476    0.0332   14.7308 H   0  0  0  0  0  0  0  0  0  0  0  0
   11.1357   -3.4955   15.2384 H   0  0  0  0  0  0  0  0  0  0  0  0
   13.1357   -4.2348   16.4698 H   0  0  0  0  0  0  0  0  0  0  0  0
   14.7302   -2.5865   17.4319 H   0  0  0  0  0  0  0  0  0  0  0  0
  1  2  1  0
  2  3  1  0
  3  4  1  0
  4  5  1  0
  3  6  2  0
  6  7  1  0
  7  8  2  0
  8  9  1  0
  8 10  1  0
 10 11  2  0
 11 12  1  0
 12 13  2  0
 13  2  1  0
 13  7  1  0
  1 14  1  0
  1 15  1  0
  1 16  1  0
  4 17  1  0
  4 18  1  0
  5 19  1  0
  9 20  1  0
  9 21  1  0
 10 22  1  0
 11 23  1  0
 12 24  1  0
M  END
>  <Energy>  (132) 
33.462896191034801

>  <compound_id>  (132) 
3182

>  <target_id>  (132) 
1

>  <reference_id>  (132) 
103

>  <inspiration_ids>  (132) 
[103, 81]

>  <energy_score>  (132) 
-21.56439486974523

>  <distance_score>  (132) 
0.8220716354592403

>  <path>  (132) 
/opt/xchem-fragalysis-2/maxwin/BulkDock/SCRATCH/505734/C3182-P103/C3182-P103.minimised.mol

>  <scratch_subdir>  (132) 
/opt/xchem-fragalysis-2/maxwin/BulkDock/SCRATCH/505734/C3182-P103

>  <fragmenstein_runtime>  (132) 
0.650092363357544

>  <fragmenstein_outcome>  (132) 
acceptable

>  <fragmenstein_mode>  (132) 
expansion

>  <fragmenstein_error>  (132) 


$$$$
C3182-P81
     RDKit          3D

 24 25  0  0  0  0  0  0  0  0999 V2000
   15.3603    0.3062   17.9148 C   0  0  0  0  0  0  0  0  0  0  0  0
   14.2038    0.2302   17.0545 N   0  0  0  0  0  0  0  0  0  0  0  0
   13.4978    1.3125   16.5678 C   0  0  0  0  0  0  0  0  0  0  0  0
   13.8858    2.7318   16.7910 C   0  0  0  0  0  0  0  0  0  0  0  0
   13.6187    3.0518   18.1481 O   0  0  0  0  0  0  0  0  0  0  0  0
   12.4307    0.9127   15.9041 N   0  0  0  0  0  0  0  0  0  0  0  0
   12.4750   -0.4651   15.9251 C   0  0  0  0  0  0  0  0  0  0  0  0
   11.5530   -1.3825   15.3769 C   0  0  0  0  0  0  0  0  0  0  0  0
   10.3645   -0.9449   14.7929 N   0  0  0  0  0  0  0  0  0  0  0  0
   11.7976   -2.7477   15.5648 C   0  0  0  0  0  0  0  0  0  0  0  0
   12.9205   -3.1891   16.2683 C   0  0  0  0  0  0  0  0  0  0  0  0
   13.8380   -2.2860   16.8179 C   0  0  0  0  0  0  0  0  0  0  0  0
   13.5812   -0.9218   16.6321 C   0  0  0  0  0  0  0  0  0  0  0  0
   16.1049    0.9545   17.4465 H   0  0  0  0  0  0  0  0  0  0  0  0
   15.7916   -0.6865   18.0569 H   0  0  0  0  0  0  0  0  0  0  0  0
   15.0459    0.7118   18.8796 H   0  0  0  0  0  0  0  0  0  0  0  0
   14.9480    2.8957   16.5894 H   0  0  0  0  0  0  0  0  0  0  0  0
   13.3083    3.4047   16.1496 H   0  0  0  0  0  0  0  0  0  0  0  0
   12.6555    2.9687   18.2794 H   0  0  0  0  0  0  0  0  0  0  0  0
   10.0821   -1.4337   13.9323 H   0  0  0  0  0  0  0  0  0  0  0  0
   10.3738    0.0602   14.6362 H   0  0  0  0  0  0  0  0  0  0  0  0
   11.0909   -3.4772   15.1749 H   0  0  0  0  0  0  0  0  0  0  0  0
   13.0726   -4.2578   16.4063 H   0  0  0  0  0  0  0  0  0  0  0  0
   14.6955   -2.6421   17.3780 H   0  0  0  0  0  0  0  0  0  0  0  0
  1  2  1  0
  2  3  1  0
  3  4  1  0
  4  5  1  0
  3  6  2  0
  6  7  1  0
  7  8  2  0
  8  9  1  0
  8 10  1  0
 10 11  2  0
 11 12  1  0
 12 13  2  0
 13  2  1  0
 13  7  1  0
  1 14  1  0
  1 15  1  0
  1 16  1  0
  4 17  1  0
  4 18  1  0
  5 19  1  0
  9 20  1  0
  9 21  1  0
 10 22  1  0
 11 23  1  0
 12 24  1  0
M  END
>  <Energy>  (133) 
33.198634210448731

>  <compound_id>  (133) 
3182

>  <target_id>  (133) 
1

>  <reference_id>  (133) 
81

>  <inspiration_ids>  (133) 
[103, 81]

>  <energy_score>  (133) 
-21.828656850331427

>  <distance_score>  (133) 
0.8202475763057083

>  <path>  (133) 
/opt/xchem-fragalysis-2/maxwin/BulkDock/SCRATCH/505734/C3182-P81/C3182-P81.minimised.mol

>  <scratch_subdir>  (133) 
/opt/xchem-fragalysis-2/maxwin/BulkDock/SCRATCH/505734/C3182-P81

>  <fragmenstein_runtime>  (133) 
0.6619131565093994

>  <fragmenstein_outcome>  (133) 
acceptable

>  <fragmenstein_mode>  (133) 
expansion

>  <fragmenstein_error>  (133) 


$$$$
C3183-P103
     RDKit          3D

 44 45  0  0  0  0  0  0  0  0999 V2000
   19.0858   -4.9646   12.7444 C   0  0  0  0  0  0  0  0  0  0  0  0
   19.0525   -4.5854   11.2628 C   0  0  0  0  0  0  0  0  0  0  0  0
   18.1241   -3.4345   10.8287 C   0  0  0  0  0  0  0  0  0  0  0  0
   18.1133   -2.3140   11.7760 C   0  0  0  0  0  0  0  0  0  0  0  0
   19.2571   -1.9774   12.4401 N   0  0  0  0  0  0  0  0  0  0  0  0
   18.8620   -1.3026   13.5067 C   0  0  0  0  0  0  0  0  0  0  0  0
   19.7570   -0.7857   14.5805 C   0  0  0  0  0  0  0  0  0  0  0  0
   21.1023   -0.8968   14.1114 O   0  0  0  0  0  0  0  0  0  0  0  0
   17.4849   -1.2595   13.5391 N   0  0  0  0  0  0  0  0  0  0  0  0
   17.0580   -1.5879   12.2686 C   0  0  0  0  0  0  0  0  0  0  0  0
   15.6569   -1.3644   11.8970 C   0  0  0  0  0  0  0  0  0  0  0  0
   14.7762   -1.6555   13.1080 C   0  0  0  0  0  0  0  0  0  0  0  0
   15.2182   -1.0421   14.3926 N   0  0  0  0  0  0  0  0  0  0  0  0
   14.2234   -1.4127   15.4512 C   0  0  0  0  0  0  0  0  0  0  0  0
   13.0513   -0.4260   15.5458 C   0  0  0  0  0  0  0  0  0  0  0  0
   11.9848   -0.5635   14.4928 C   0  0  0  0  0  0  0  0  0  0  0  0
   11.7969    0.2142   13.5712 O   0  0  0  0  0  0  0  0  0  0  0  0
   11.1931   -1.6399   14.6689 O   0  0  0  0  0  0  0  0  0  0  0  0
   16.6289   -1.4132   14.7339 C   0  0  0  0  0  0  0  0  0  0  0  0
   16.8131   -2.8215   15.3263 C   0  0  0  0  0  0  0  0  0  0  0  0
   17.1265   -0.4780   15.6719 O   0  0  0  0  0  0  0  0  0  0  0  0
   18.1547   -4.7654   13.2716 H   0  0  0  0  0  0  0  0  0  0  0  0
   19.8747   -4.4081   13.2619 H   0  0  0  0  0  0  0  0  0  0  0  0
   19.3273   -6.0270   12.8533 H   0  0  0  0  0  0  0  0  0  0  0  0
   20.0793   -4.3430   10.9582 H   0  0  0  0  0  0  0  0  0  0  0  0
   18.7755   -5.4710   10.6766 H   0  0  0  0  0  0  0  0  0  0  0  0
   18.4347   -3.0787    9.8393 H   0  0  0  0  0  0  0  0  0  0  0  0
   17.1084   -3.8198   10.7070 H   0  0  0  0  0  0  0  0  0  0  0  0
   19.5586    0.2674   14.7955 H   0  0  0  0  0  0  0  0  0  0  0  0
   19.6707   -1.3762   15.4957 H   0  0  0  0  0  0  0  0  0  0  0  0
   21.0449   -1.4211   13.2853 H   0  0  0  0  0  0  0  0  0  0  0  0
   15.5270   -0.3220   11.5829 H   0  0  0  0  0  0  0  0  0  0  0  0
   15.3600   -1.9996   11.0555 H   0  0  0  0  0  0  0  0  0  0  0  0
   13.7688   -1.3230   12.8496 H   0  0  0  0  0  0  0  0  0  0  0  0
   14.7270   -2.7384   13.2221 H   0  0  0  0  0  0  0  0  0  0  0  0
   14.7198   -1.3513   16.4277 H   0  0  0  0  0  0  0  0  0  0  0  0
   13.8718   -2.4452   15.3399 H   0  0  0  0  0  0  0  0  0  0  0  0
   12.5572   -0.5414   16.5187 H   0  0  0  0  0  0  0  0  0  0  0  0
   13.4197    0.6072   15.5250 H   0  0  0  0  0  0  0  0  0  0  0  0
   10.5494   -1.6228   13.9072 H   0  0  0  0  0  0  0  0  0  0  0  0
   16.3069   -2.9275   16.2915 H   0  0  0  0  0  0  0  0  0  0  0  0
   16.4432   -3.6004   14.6540 H   0  0  0  0  0  0  0  0  0  0  0  0
   17.8687   -3.0358   15.5295 H   0  0  0  0  0  0  0  0  0  0  0  0
   16.6431    0.3321   15.4318 H   0  0  0  0  0  0  0  0  0  0  0  0
  1  2  1  0
  2  3  1  0
  3  4  1  0
  4  5  1  0
  5  6  2  0
  6  7  1  0
  7  8  1  0
  6  9  1  0
  9 10  1  0
 10 11  1  0
 11 12  1  0
 12 13  1  0
 13 14  1  0
 14 15  1  0
 15 16  1  0
 16 17  2  0
 16 18  1  0
 13 19  1  0
 19 20  1  0
 19 21  1  0
 10  4  2  0
 19  9  1  0
  1 22  1  0
  1 23  1  0
  1 24  1  0
  2 25  1  0
  2 26  1  0
  3 27  1  0
  3 28  1  0
  7 29  1  0
  7 30  1  0
  8 31  1  0
 11 32  1  0
 11 33  1  0
 12 34  1  0
 12 35  1  0
 14 36  1  0
 14 37  1  0
 15 38  1  0
 15 39  1  0
 18 40  1  0
 20 41  1  0
 20 42  1  0
 20 43  1  0
 21 44  1  0
M  END
>  <Energy>  (134) 
13.619461871787152

>  <compound_id>  (134) 
3183

>  <target_id>  (134) 
1

>  <reference_id>  (134) 
103

>  <inspiration_ids>  (134) 
[103, 83]

>  <energy_score>  (134) 
-54.488437705984836

>  <distance_score>  (134) 
2.3167374506576612

>  <path>  (134) 
/opt/xchem-fragalysis-2/maxwin/BulkDock/SCRATCH/505734/C3183-P103/C3183-P103.minimised.mol

>  <scratch_subdir>  (134) 
/opt/xchem-fragalysis-2/maxwin/BulkDock/SCRATCH/505734/C3183-P103

>  <fragmenstein_runtime>  (134) 
5.019541025161743

>  <fragmenstein_outcome>  (134) 
too moved

>  <fragmenstein_mode>  (134) 
expansion

>  <fragmenstein_error>  (134) 


$$$$
C3183-P83
     RDKit          3D

 44 45  0  0  0  0  0  0  0  0999 V2000
   18.9004   -4.9963   12.7839 C   0  0  0  0  0  0  0  0  0  0  0  0
   18.8713   -4.6112   11.3096 C   0  0  0  0  0  0  0  0  0  0  0  0
   17.7768   -3.6148   10.8989 C   0  0  0  0  0  0  0  0  0  0  0  0
   17.7623   -2.4108   11.7467 C   0  0  0  0  0  0  0  0  0  0  0  0
   18.9256   -1.8681   12.2205 N   0  0  0  0  0  0  0  0  0  0  0  0
   18.5689   -1.1123   13.2460 C   0  0  0  0  0  0  0  0  0  0  0  0
   19.4599   -0.2635   14.0720 C   0  0  0  0  0  0  0  0  0  0  0  0
   19.7727   -1.0094   15.2476 O   0  0  0  0  0  0  0  0  0  0  0  0
   17.2302   -1.3231   13.5201 N   0  0  0  0  0  0  0  0  0  0  0  0
   16.6951   -1.7764   12.3299 C   0  0  0  0  0  0  0  0  0  0  0  0
   15.2440   -1.7896   12.1730 C   0  0  0  0  0  0  0  0  0  0  0  0
   14.6304   -2.3181   13.4646 C   0  0  0  0  0  0  0  0  0  0  0  0
   15.1352   -1.7308   14.7331 N   0  0  0  0  0  0  0  0  0  0  0  0
   14.4804   -2.4304   15.8876 C   0  0  0  0  0  0  0  0  0  0  0  0
   12.9462   -2.5206   15.9153 C   0  0  0  0  0  0  0  0  0  0  0  0
   12.4097   -3.7387   15.1952 C   0  0  0  0  0  0  0  0  0  0  0  0
   11.8894   -3.6983   14.0886 O   0  0  0  0  0  0  0  0  0  0  0  0
   12.5676   -4.9018   15.8513 O   0  0  0  0  0  0  0  0  0  0  0  0
   16.6477   -1.7237   14.8307 C   0  0  0  0  0  0  0  0  0  0  0  0
   17.2244   -3.0849   15.2761 C   0  0  0  0  0  0  0  0  0  0  0  0
   17.0776   -0.7575   15.7811 O   0  0  0  0  0  0  0  0  0  0  0  0
   17.9011   -5.1358   13.1938 H   0  0  0  0  0  0  0  0  0  0  0  0
   19.4627   -5.9263   12.9169 H   0  0  0  0  0  0  0  0  0  0  0  0
   19.4089   -4.2313   13.3773 H   0  0  0  0  0  0  0  0  0  0  0  0
   19.8560   -4.2113   11.0360 H   0  0  0  0  0  0  0  0  0  0  0  0
   18.7377   -5.5198   10.7095 H   0  0  0  0  0  0  0  0  0  0  0  0
   17.9281   -3.3231    9.8532 H   0  0  0  0  0  0  0  0  0  0  0  0
   16.8047   -4.1195   10.9485 H   0  0  0  0  0  0  0  0  0  0  0  0
   20.3879   -0.0211   13.5454 H   0  0  0  0  0  0  0  0  0  0  0  0
   18.9712    0.6709   14.3626 H   0  0  0  0  0  0  0  0  0  0  0  0
   20.3541   -1.7292   14.9326 H   0  0  0  0  0  0  0  0  0  0  0  0
   14.8874   -0.7713   11.9765 H   0  0  0  0  0  0  0  0  0  0  0  0
   14.9361   -2.4116   11.3261 H   0  0  0  0  0  0  0  0  0  0  0  0
   14.7602   -3.4077   13.4897 H   0  0  0  0  0  0  0  0  0  0  0  0
   13.5618   -2.1060   13.3750 H   0  0  0  0  0  0  0  0  0  0  0  0
   14.7826   -1.8872   16.7917 H   0  0  0  0  0  0  0  0  0  0  0  0
   14.8642   -3.4520   15.9820 H   0  0  0  0  0  0  0  0  0  0  0  0
   12.5972   -2.5830   16.9533 H   0  0  0  0  0  0  0  0  0  0  0  0
   12.4835   -1.6192   15.4981 H   0  0  0  0  0  0  0  0  0  0  0  0
   12.9438   -4.8997   16.7526 H   0  0  0  0  0  0  0  0  0  0  0  0
   18.3135   -3.1223   15.1815 H   0  0  0  0  0  0  0  0  0  0  0  0
   17.0258   -3.2754   16.3372 H   0  0  0  0  0  0  0  0  0  0  0  0
   16.8166   -3.9119   14.6886 H   0  0  0  0  0  0  0  0  0  0  0  0
   18.0322   -0.9103   15.9292 H   0  0  0  0  0  0  0  0  0  0  0  0
  1  2  1  0
  2  3  1  0
  3  4  1  0
  4  5  1  0
  5  6  2  0
  6  7  1  0
  7  8  1  0
  6  9  1  0
  9 10  1  0
 10 11  1  0
 11 12  1  0
 12 13  1  0
 13 14  1  0
 14 15  1  0
 15 16  1  0
 16 17  2  0
 16 18  1  0
 13 19  1  0
 19 20  1  0
 19 21  1  0
 10  4  2  0
 19  9  1  0
  1 22  1  0
  1 23  1  0
  1 24  1  0
  2 25  1  0
  2 26  1  0
  3 27  1  0
  3 28  1  0
  7 29  1  0
  7 30  1  0
  8 31  1  0
 11 32  1  0
 11 33  1  0
 12 34  1  0
 12 35  1  0
 14 36  1  0
 14 37  1  0
 15 38  1  0
 15 39  1  0
 18 40  1  0
 20 41  1  0
 20 42  1  0
 20 43  1  0
 21 44  1  0
M  END
>  <Energy>  (135) 
27.72332402942876

>  <compound_id>  (135) 
3183

>  <target_id>  (135) 
1

>  <reference_id>  (135) 
83

>  <inspiration_ids>  (135) 
[103, 83]

>  <energy_score>  (135) 
-40.38457554834244

>  <distance_score>  (135) 
2.73658662971775

>  <path>  (135) 
/opt/xchem-fragalysis-2/maxwin/BulkDock/SCRATCH/505734/C3183-P83/C3183-P83.minimised.mol

>  <scratch_subdir>  (135) 
/opt/xchem-fragalysis-2/maxwin/BulkDock/SCRATCH/505734/C3183-P83

>  <fragmenstein_runtime>  (135) 
4.673455476760864

>  <fragmenstein_outcome>  (135) 
too moved

>  <fragmenstein_mode>  (135) 
expansion

>  <fragmenstein_error>  (135) 


$$$$
C3184-P103
     RDKit          3D

 52 55  0  0  0  0  0  0  0  0999 V2000
   15.2820    1.5947   18.3101 C   0  0  0  0  0  0  0  0  0  0  0  0
   14.3213    1.1204   17.3481 N   0  0  0  0  0  0  0  0  0  0  0  0
   13.4447    1.8846   16.6055 C   0  0  0  0  0  0  0  0  0  0  0  0
   13.3894    3.3666   16.6662 C   0  0  0  0  0  0  0  0  0  0  0  0
   13.0923    3.7442   18.0042 O   0  0  0  0  0  0  0  0  0  0  0  0
   12.6619    1.1227   15.8610 N   0  0  0  0  0  0  0  0  0  0  0  0
   13.0416   -0.1505   16.1370 C   0  0  0  0  0  0  0  0  0  0  0  0
   14.0580   -0.1881   17.0625 C   0  0  0  0  0  0  0  0  0  0  0  0
   14.5562   -1.4101   17.7223 C   0  0  0  0  0  0  0  0  0  0  0  0
   15.8667   -1.2794   18.2962 N   0  0  0  0  0  0  0  0  0  0  0  0
   16.3318   -1.3628   19.7741 C   0  0  0  0  0  0  0  0  0  0  0  0
   15.7113   -1.4737   20.7578 O   0  0  0  0  0  0  0  0  0  0  0  0
   17.8652   -1.3901   19.8114 C   0  0  0  0  0  0  0  0  0  0  0  0
   18.3349   -2.7512   20.2209 C   0  0  0  0  0  0  0  0  0  0  0  0
   19.4832   -3.4517   19.9182 C   0  0  0  0  0  0  0  0  0  0  0  0
   19.3329   -4.6896   20.5686 C   0  0  0  0  0  0  0  0  0  0  0  0
   18.1830   -4.7763   21.2380 N   0  0  0  0  0  0  0  0  0  0  0  0
   17.6041   -3.5801   21.0448 N   0  0  0  0  0  0  0  0  0  0  0  0
   14.3110   -2.7033   16.8584 C   0  0  0  0  0  0  0  0  0  0  0  0
   15.6817   -3.3285   16.3898 C   0  0  0  0  0  0  0  0  0  0  0  0
   16.4095   -4.2160   17.3955 C   0  0  0  0  0  0  0  0  0  0  0  0
   15.4636   -4.8531   18.3952 C   0  0  0  0  0  0  0  0  0  0  0  0
   14.1350   -4.9973   17.7925 N   0  0  0  0  0  0  0  0  0  0  0  0
   13.4967   -3.6909   17.7428 C   0  0  0  0  0  0  0  0  0  0  0  0
   13.4752   -2.4565   15.5296 C   0  0  0  0  0  0  0  0  0  0  0  0
   12.4163   -1.3569   15.5757 C   0  0  0  0  0  0  0  0  0  0  0  0
   15.3196    2.6845   18.3212 H   0  0  0  0  0  0  0  0  0  0  0  0
   16.2738    1.2361   18.0252 H   0  0  0  0  0  0  0  0  0  0  0  0
   14.9934    1.2362   19.3010 H   0  0  0  0  0  0  0  0  0  0  0  0
   14.3480    3.8081   16.3784 H   0  0  0  0  0  0  0  0  0  0  0  0
   12.6140    3.7664   16.0056 H   0  0  0  0  0  0  0  0  0  0  0  0
   12.1638    3.4734   18.1795 H   0  0  0  0  0  0  0  0  0  0  0  0
   13.9413   -1.4754   18.6179 H   0  0  0  0  0  0  0  0  0  0  0  0
   16.6751   -1.2693   17.6872 H   0  0  0  0  0  0  0  0  0  0  0  0
   18.1963   -0.6426   20.5413 H   0  0  0  0  0  0  0  0  0  0  0  0
   18.2988   -1.1115   18.8464 H   0  0  0  0  0  0  0  0  0  0  0  0
   20.3107   -3.1245   19.3049 H   0  0  0  0  0  0  0  0  0  0  0  0
   20.0106   -5.5338   20.5789 H   0  0  0  0  0  0  0  0  0  0  0  0
   16.7064   -3.3878   21.4887 H   0  0  0  0  0  0  0  0  0  0  0  0
   15.4905   -3.9656   15.5189 H   0  0  0  0  0  0  0  0  0  0  0  0
   16.3552   -2.5544   16.0011 H   0  0  0  0  0  0  0  0  0  0  0  0
   16.9412   -5.0000   16.8406 H   0  0  0  0  0  0  0  0  0  0  0  0
   17.1821   -3.6479   17.9135 H   0  0  0  0  0  0  0  0  0  0  0  0
   15.8540   -5.8318   18.6947 H   0  0  0  0  0  0  0  0  0  0  0  0
   15.4025   -4.2637   19.3166 H   0  0  0  0  0  0  0  0  0  0  0  0
   14.2307   -5.2785   16.8085 H   0  0  0  0  0  0  0  0  0  0  0  0
   13.3502   -3.3495   18.7726 H   0  0  0  0  0  0  0  0  0  0  0  0
   12.4850   -3.8264   17.3460 H   0  0  0  0  0  0  0  0  0  0  0  0
   12.9737   -3.3798   15.2270 H   0  0  0  0  0  0  0  0  0  0  0  0
   14.1748   -2.1965   14.7219 H   0  0  0  0  0  0  0  0  0  0  0  0
   11.5735   -1.6668   16.2004 H   0  0  0  0  0  0  0  0  0  0  0  0
   12.0298   -1.1646   14.5691 H   0  0  0  0  0  0  0  0  0  0  0  0
  1  2  1  0
  2  3  1  0
  3  4  1  0
  4  5  1  0
  3  6  2  0
  6  7  1  0
  7  8  2  0
  8  9  1  0
  9 10  1  0
 10 11  1  0
 11 12  2  0
 11 13  1  0
 13 14  1  0
 14 15  2  0
 15 16  1  0
 16 17  2  0
 17 18  1  0
  9 19  1  0
 19 20  1  0
 20 21  1  0
 21 22  1  0
 22 23  1  0
 23 24  1  0
 19 25  1  0
 25 26  1  0
  8  2  1  0
 18 14  1  0
 24 19  1  0
 26  7  1  0
  1 27  1  0
  1 28  1  0
  1 29  1  0
  4 30  1  0
  4 31  1  0
  5 32  1  0
  9 33  1  0
 10 34  1  0
 13 35  1  0
 13 36  1  0
 15 37  1  0
 16 38  1  0
 18 39  1  0
 20 40  1  0
 20 41  1  0
 21 42  1  0
 21 43  1  0
 22 44  1  0
 22 45  1  0
 23 46  1  0
 24 47  1  0
 24 48  1  0
 25 49  1  0
 25 50  1  0
 26 51  1  0
 26 52  1  0
M  END
>  <Energy>  (136) 
61.999033968314365

>  <compound_id>  (136) 
3184

>  <target_id>  (136) 
1

>  <reference_id>  (136) 
103

>  <inspiration_ids>  (136) 
[103, 86]

>  <energy_score>  (136) 
-10.136357936734484

>  <distance_score>  (136) 
1.561963544764802

>  <path>  (136) 
/opt/xchem-fragalysis-2/maxwin/BulkDock/SCRATCH/505734/C3184-P103/C3184-P103.minimised.mol

>  <scratch_subdir>  (136) 
/opt/xchem-fragalysis-2/maxwin/BulkDock/SCRATCH/505734/C3184-P103

>  <fragmenstein_runtime>  (136) 
3.2530343532562256

>  <fragmenstein_outcome>  (136) 
too moved

>  <fragmenstein_mode>  (136) 
expansion

>  <fragmenstein_error>  (136) 


$$$$
C3184-P86
     RDKit          3D

 52 55  0  0  0  0  0  0  0  0999 V2000
   15.4831    1.3041   18.0501 C   0  0  0  0  0  0  0  0  0  0  0  0
   14.3567    0.7586   17.3358 N   0  0  0  0  0  0  0  0  0  0  0  0
   13.3758    1.4663   16.6747 C   0  0  0  0  0  0  0  0  0  0  0  0
   13.3453    2.9506   16.5990 C   0  0  0  0  0  0  0  0  0  0  0  0
   13.0433    3.4366   17.9014 O   0  0  0  0  0  0  0  0  0  0  0  0
   12.4923    0.6476   16.1277 N   0  0  0  0  0  0  0  0  0  0  0  0
   12.9699   -0.6059   16.3719 C   0  0  0  0  0  0  0  0  0  0  0  0
   14.0938   -0.5727   17.1602 C   0  0  0  0  0  0  0  0  0  0  0  0
   14.9433   -1.7187   17.5901 C   0  0  0  0  0  0  0  0  0  0  0  0
   15.0184   -1.6880   19.0307 N   0  0  0  0  0  0  0  0  0  0  0  0
   16.1878   -1.3011   19.9684 C   0  0  0  0  0  0  0  0  0  0  0  0
   17.2943   -1.0215   19.7221 O   0  0  0  0  0  0  0  0  0  0  0  0
   15.6429   -1.3201   21.4004 C   0  0  0  0  0  0  0  0  0  0  0  0
   15.5934   -2.6959   21.9653 C   0  0  0  0  0  0  0  0  0  0  0  0
   14.6498   -3.3190   22.7538 C   0  0  0  0  0  0  0  0  0  0  0  0
   15.1804   -4.5939   23.0127 C   0  0  0  0  0  0  0  0  0  0  0  0
   16.3669   -4.7792   22.4310 N   0  0  0  0  0  0  0  0  0  0  0  0
   16.5910   -3.6185   21.7879 N   0  0  0  0  0  0  0  0  0  0  0  0
   14.4241   -3.0944   16.9938 C   0  0  0  0  0  0  0  0  0  0  0  0
   15.6645   -3.9620   16.6086 C   0  0  0  0  0  0  0  0  0  0  0  0
   16.4528   -4.4391   17.8205 C   0  0  0  0  0  0  0  0  0  0  0  0
   15.5500   -5.1509   18.8166 C   0  0  0  0  0  0  0  0  0  0  0  0
   14.3482   -4.3943   19.1445 N   0  0  0  0  0  0  0  0  0  0  0  0
   13.5933   -3.9324   17.9871 C   0  0  0  0  0  0  0  0  0  0  0  0
   13.5471   -2.8802   15.7065 C   0  0  0  0  0  0  0  0  0  0  0  0
   12.4210   -1.8441   15.8009 C   0  0  0  0  0  0  0  0  0  0  0  0
   15.2582    1.2762   19.1185 H   0  0  0  0  0  0  0  0  0  0  0  0
   15.6647    2.3358   17.7442 H   0  0  0  0  0  0  0  0  0  0  0  0
   16.3773    0.7231   17.8161 H   0  0  0  0  0  0  0  0  0  0  0  0
   14.3025    3.3649   16.2713 H   0  0  0  0  0  0  0  0  0  0  0  0
   12.5711    3.2956   15.9064 H   0  0  0  0  0  0  0  0  0  0  0  0
   12.1319    3.1456   18.0796 H   0  0  0  0  0  0  0  0  0  0  0  0
   15.9556   -1.5273   17.2124 H   0  0  0  0  0  0  0  0  0  0  0  0
   14.2108   -1.9506   19.5865 H   0  0  0  0  0  0  0  0  0  0  0  0
   14.6528   -0.8502   21.4180 H   0  0  0  0  0  0  0  0  0  0  0  0
   16.2955   -0.6916   22.0181 H   0  0  0  0  0  0  0  0  0  0  0  0
   13.7142   -2.9041   23.1044 H   0  0  0  0  0  0  0  0  0  0  0  0
   14.7544   -5.3924   23.6056 H   0  0  0  0  0  0  0  0  0  0  0  0
   17.4525   -3.5166   21.2588 H   0  0  0  0  0  0  0  0  0  0  0  0
   15.3303   -4.8422   16.0452 H   0  0  0  0  0  0  0  0  0  0  0  0
   16.3266   -3.4048   15.9343 H   0  0  0  0  0  0  0  0  0  0  0  0
   17.2466   -5.1214   17.4945 H   0  0  0  0  0  0  0  0  0  0  0  0
   16.9547   -3.5944   18.3034 H   0  0  0  0  0  0  0  0  0  0  0  0
   15.2929   -6.1373   18.4380 H   0  0  0  0  0  0  0  0  0  0  0  0
   16.1182   -5.3414   19.7300 H   0  0  0  0  0  0  0  0  0  0  0  0
   13.7549   -4.9223   19.7845 H   0  0  0  0  0  0  0  0  0  0  0  0
   12.7566   -3.3325   18.3440 H   0  0  0  0  0  0  0  0  0  0  0  0
   13.1601   -4.8016   17.4810 H   0  0  0  0  0  0  0  0  0  0  0  0
   13.0776   -3.8271   15.4362 H   0  0  0  0  0  0  0  0  0  0  0  0
   14.2132   -2.5794   14.8866 H   0  0  0  0  0  0  0  0  0  0  0  0
   11.6125   -2.2239   16.4287 H   0  0  0  0  0  0  0  0  0  0  0  0
   12.0026   -1.6605   14.8053 H   0  0  0  0  0  0  0  0  0  0  0  0
  1  2  1  0
  2  3  1  0
  3  4  1  0
  4  5  1  0
  3  6  2  0
  6  7  1  0
  7  8  2  0
  8  9  1  0
  9 10  1  0
 10 11  1  0
 11 12  2  0
 11 13  1  0
 13 14  1  0
 14 15  2  0
 15 16  1  0
 16 17  2  0
 17 18  1  0
  9 19  1  0
 19 20  1  0
 20 21  1  0
 21 22  1  0
 22 23  1  0
 23 24  1  0
 19 25  1  0
 25 26  1  0
  8  2  1  0
 18 14  1  0
 24 19  1  0
 26  7  1  0
  1 27  1  0
  1 28  1  0
  1 29  1  0
  4 30  1  0
  4 31  1  0
  5 32  1  0
  9 33  1  0
 10 34  1  0
 13 35  1  0
 13 36  1  0
 15 37  1  0
 16 38  1  0
 18 39  1  0
 20 40  1  0
 20 41  1  0
 21 42  1  0
 21 43  1  0
 22 44  1  0
 22 45  1  0
 23 46  1  0
 24 47  1  0
 24 48  1  0
 25 49  1  0
 25 50  1  0
 26 51  1  0
 26 52  1  0
M  END
>  <Energy>  (137) 
37.872750408996708

>  <compound_id>  (137) 
3184

>  <target_id>  (137) 
1

>  <reference_id>  (137) 
86

>  <inspiration_ids>  (137) 
[103, 86]

>  <energy_score>  (137) 
-34.262641496051344

>  <distance_score>  (137) 
1.561894579295823

>  <path>  (137) 
/opt/xchem-fragalysis-2/maxwin/BulkDock/SCRATCH/505734/C3184-P86/C3184-P86.minimised.mol

>  <scratch_subdir>  (137) 
/opt/xchem-fragalysis-2/maxwin/BulkDock/SCRATCH/505734/C3184-P86

>  <fragmenstein_runtime>  (137) 
3.1471900939941406

>  <fragmenstein_outcome>  (137) 
too moved

>  <fragmenstein_mode>  (137) 
expansion

>  <fragmenstein_error>  (137) 


$$$$
C3185-P103
     RDKit          3D

 49 53  0  0  0  0  0  0  0  0999 V2000
   17.4426   -2.0125   16.6985 C   0  0  0  0  0  0  0  0  0  0  0  0
   16.1858   -2.4751   16.1395 N   0  0  0  0  0  0  0  0  0  0  0  0
   15.0679   -2.0554   16.9359 N   0  0  0  0  0  0  0  0  0  0  0  0
   13.9778   -1.7934   16.0183 C   0  0  0  0  0  0  0  0  0  0  0  0
   12.8320   -2.8416   16.0910 C   0  0  0  0  0  0  0  0  0  0  0  0
   11.6948   -2.5203   15.0866 C   0  0  0  0  0  0  0  0  0  0  0  0
   11.1363   -1.0823   15.1895 C   0  0  0  0  0  0  0  0  0  0  0  0
   12.0978   -0.1316   15.8040 C   0  0  0  0  0  0  0  0  0  0  0  0
   11.8665    1.2019   15.9677 N   0  0  0  0  0  0  0  0  0  0  0  0
   12.9711    1.6893   16.5125 C   0  0  0  0  0  0  0  0  0  0  0  0
   13.2474    3.1280   16.7697 C   0  0  0  0  0  0  0  0  0  0  0  0
   13.1538    3.3495   18.1689 O   0  0  0  0  0  0  0  0  0  0  0  0
   13.8619    0.6769   16.8087 N   0  0  0  0  0  0  0  0  0  0  0  0
   15.0991    0.8161   17.5403 C   0  0  0  0  0  0  0  0  0  0  0  0
   13.3548   -0.4669   16.2499 C   0  0  0  0  0  0  0  0  0  0  0  0
   14.5214   -1.7851   14.6698 N   0  0  0  0  0  0  0  0  0  0  0  0
   15.8958   -2.2122   14.7404 C   0  0  0  0  0  0  0  0  0  0  0  0
   16.8662   -0.9760   13.8384 S   0  0  0  0  0  0  0  0  0  0  0  0
   17.5315   -1.9773   12.5883 C   0  0  0  0  0  0  0  0  0  0  0  0
   18.3910   -2.9764   12.8807 C   0  0  0  0  0  0  0  0  0  0  0  0
   18.9883   -3.7544   11.8028 C   0  0  0  0  0  0  0  0  0  0  0  0
   18.7259   -3.4821   10.5110 C   0  0  0  0  0  0  0  0  0  0  0  0
   17.8453   -2.4162   10.1879 C   0  0  0  0  0  0  0  0  0  0  0  0
   17.4618   -1.9035    9.0373 N   0  0  0  0  0  0  0  0  0  0  0  0
   16.5754   -0.8873    9.3070 N   0  0  0  0  0  0  0  0  0  0  0  0
   16.4561   -0.7941   10.6141 C   0  0  0  0  0  0  0  0  0  0  0  0
   17.2517   -1.7217   11.2370 N   0  0  0  0  0  0  0  0  0  0  0  0
   17.5490   -2.3605   17.7331 H   0  0  0  0  0  0  0  0  0  0  0  0
   18.2918   -2.4338   16.1507 H   0  0  0  0  0  0  0  0  0  0  0  0
   17.5391   -0.9227   16.7086 H   0  0  0  0  0  0  0  0  0  0  0  0
   14.7876   -2.7900   17.5870 H   0  0  0  0  0  0  0  0  0  0  0  0
   13.2111   -3.8517   15.9052 H   0  0  0  0  0  0  0  0  0  0  0  0
   12.4107   -2.8606   17.1037 H   0  0  0  0  0  0  0  0  0  0  0  0
   12.0688   -2.6745   14.0661 H   0  0  0  0  0  0  0  0  0  0  0  0
   10.8785   -3.2408   15.2078 H   0  0  0  0  0  0  0  0  0  0  0  0
   10.2195   -1.0937   15.7881 H   0  0  0  0  0  0  0  0  0  0  0  0
   10.8646   -0.7158   14.1960 H   0  0  0  0  0  0  0  0  0  0  0  0
   12.5217    3.7687   16.2589 H   0  0  0  0  0  0  0  0  0  0  0  0
   14.2482    3.4102   16.4300 H   0  0  0  0  0  0  0  0  0  0  0  0
   12.1972    3.2783   18.3865 H   0  0  0  0  0  0  0  0  0  0  0  0
   15.1840    1.8154   17.9691 H   0  0  0  0  0  0  0  0  0  0  0  0
   15.9256    0.6630   16.8454 H   0  0  0  0  0  0  0  0  0  0  0  0
   15.1119    0.0954   18.3605 H   0  0  0  0  0  0  0  0  0  0  0  0
   14.5636   -0.8192   14.3571 H   0  0  0  0  0  0  0  0  0  0  0  0
   15.9676   -3.1705   14.2210 H   0  0  0  0  0  0  0  0  0  0  0  0
   18.6886   -3.2259   13.8940 H   0  0  0  0  0  0  0  0  0  0  0  0
   19.6645   -4.5609   12.0723 H   0  0  0  0  0  0  0  0  0  0  0  0
   19.1675   -4.0552    9.7021 H   0  0  0  0  0  0  0  0  0  0  0  0
   15.8340   -0.0881   11.1442 H   0  0  0  0  0  0  0  0  0  0  0  0
  1  2  1  0
  2  3  1  0
  3  4  1  0
  4  5  1  0
  5  6  1  0
  6  7  1  0
  7  8  1  0
  8  9  1  0
  9 10  2  0
 10 11  1  0
 11 12  1  0
 10 13  1  0
 13 14  1  0
 13 15  1  0
  4 16  1  0
 16 17  1  0
 17 18  1  0
 18 19  1  0
 19 20  2  0
 20 21  1  0
 21 22  2  0
 22 23  1  0
 23 24  2  0
 24 25  1  0
 25 26  2  0
 26 27  1  0
 17  2  1  0
 27 19  1  0
 15  4  1  0
 27 23  1  0
 15  8  2  0
  1 28  1  0
  1 29  1  0
  1 30  1  0
  3 31  1  0
  5 32  1  0
  5 33  1  0
  6 34  1  0
  6 35  1  0
  7 36  1  0
  7 37  1  0
 11 38  1  0
 11 39  1  0
 12 40  1  0
 14 41  1  0
 14 42  1  0
 14 43  1  0
 16 44  1  0
 17 45  1  0
 20 46  1  0
 21 47  1  0
 22 48  1  0
 26 49  1  0
M  END
>  <Energy>  (138) 
-2.8755973905697005

>  <compound_id>  (138) 
3185

>  <target_id>  (138) 
1

>  <reference_id>  (138) 
103

>  <inspiration_ids>  (138) 
[103, 97]

>  <energy_score>  (138) 
-44.601780161854634

>  <distance_score>  (138) 
1.248451362395079

>  <path>  (138) 
/opt/xchem-fragalysis-2/maxwin/BulkDock/SCRATCH/505734/C3185-P103/C3185-P103.minimised.mol

>  <scratch_subdir>  (138) 
/opt/xchem-fragalysis-2/maxwin/BulkDock/SCRATCH/505734/C3185-P103

>  <fragmenstein_runtime>  (138) 
1.838325023651123

>  <fragmenstein_outcome>  (138) 
too moved

>  <fragmenstein_mode>  (138) 
expansion

>  <fragmenstein_error>  (138) 


$$$$
C3185-P97
     RDKit          3D

 49 53  0  0  0  0  0  0  0  0999 V2000
   17.3547   -2.1100   16.8715 C   0  0  0  0  0  0  0  0  0  0  0  0
   16.1424   -2.4787   16.1785 N   0  0  0  0  0  0  0  0  0  0  0  0
   14.9304   -2.2574   16.8980 N   0  0  0  0  0  0  0  0  0  0  0  0
   13.9517   -1.7815   15.9427 C   0  0  0  0  0  0  0  0  0  0  0  0
   12.7497   -2.7684   15.9384 C   0  0  0  0  0  0  0  0  0  0  0  0
   11.6407   -2.3612   14.9456 C   0  0  0  0  0  0  0  0  0  0  0  0
   11.1466   -0.9127   15.1165 C   0  0  0  0  0  0  0  0  0  0  0  0
   12.1586   -0.0262   15.7419 C   0  0  0  0  0  0  0  0  0  0  0  0
   11.9654    1.3087   15.9329 N   0  0  0  0  0  0  0  0  0  0  0  0
   13.1022    1.7574   16.4340 C   0  0  0  0  0  0  0  0  0  0  0  0
   13.4063    3.1863   16.7043 C   0  0  0  0  0  0  0  0  0  0  0  0
   13.1360    3.4139   18.0810 O   0  0  0  0  0  0  0  0  0  0  0  0
   13.9726    0.7177   16.7008 N   0  0  0  0  0  0  0  0  0  0  0  0
   15.2455    0.8480   17.3662 C   0  0  0  0  0  0  0  0  0  0  0  0
   13.4033   -0.4213   16.1867 C   0  0  0  0  0  0  0  0  0  0  0  0
   14.5952   -1.7028   14.6468 N   0  0  0  0  0  0  0  0  0  0  0  0
   15.9491   -2.1695   14.7795 C   0  0  0  0  0  0  0  0  0  0  0  0
   17.0251   -0.9559   13.9856 S   0  0  0  0  0  0  0  0  0  0  0  0
   17.5828   -1.9129   12.6549 C   0  0  0  0  0  0  0  0  0  0  0  0
   18.4609   -2.9183   12.8521 C   0  0  0  0  0  0  0  0  0  0  0  0
   18.9642   -3.6677   11.7087 C   0  0  0  0  0  0  0  0  0  0  0  0
   18.5890   -3.3663   10.4515 C   0  0  0  0  0  0  0  0  0  0  0  0
   17.6752   -2.3016   10.2306 C   0  0  0  0  0  0  0  0  0  0  0  0
   17.1771   -1.7736    9.1322 N   0  0  0  0  0  0  0  0  0  0  0  0
   16.3108   -0.7719    9.5042 N   0  0  0  0  0  0  0  0  0  0  0  0
   16.3234   -0.6968   10.8175 C   0  0  0  0  0  0  0  0  0  0  0  0
   17.1803   -1.6299   11.3424 N   0  0  0  0  0  0  0  0  0  0  0  0
   17.3723   -2.5502   17.8756 H   0  0  0  0  0  0  0  0  0  0  0  0
   18.2345   -2.5058   16.3525 H   0  0  0  0  0  0  0  0  0  0  0  0
   17.4782   -1.0302   16.9851 H   0  0  0  0  0  0  0  0  0  0  0  0
   15.0015   -1.6541   17.7070 H   0  0  0  0  0  0  0  0  0  0  0  0
   13.0812   -3.7864   15.7176 H   0  0  0  0  0  0  0  0  0  0  0  0
   12.3151   -2.8182   16.9428 H   0  0  0  0  0  0  0  0  0  0  0  0
   12.0082   -2.4878   13.9199 H   0  0  0  0  0  0  0  0  0  0  0  0
   10.7931   -3.0498   15.0370 H   0  0  0  0  0  0  0  0  0  0  0  0
   10.2420   -0.9085   15.7333 H   0  0  0  0  0  0  0  0  0  0  0  0
   10.8706   -0.4920   14.1456 H   0  0  0  0  0  0  0  0  0  0  0  0
   12.7666    3.8437   16.1066 H   0  0  0  0  0  0  0  0  0  0  0  0
   14.4460    3.4454   16.4879 H   0  0  0  0  0  0  0  0  0  0  0  0
   12.1694    3.3195   18.1678 H   0  0  0  0  0  0  0  0  0  0  0  0
   15.2515    0.2194   18.2574 H   0  0  0  0  0  0  0  0  0  0  0  0
   15.4125    1.8759   17.6911 H   0  0  0  0  0  0  0  0  0  0  0  0
   16.0292    0.5776   16.6604 H   0  0  0  0  0  0  0  0  0  0  0  0
   14.1131   -2.2699   13.9651 H   0  0  0  0  0  0  0  0  0  0  0  0
   16.0344   -3.1232   14.2497 H   0  0  0  0  0  0  0  0  0  0  0  0
   18.8403   -3.1876   13.8332 H   0  0  0  0  0  0  0  0  0  0  0  0
   19.6646   -4.4763   11.8981 H   0  0  0  0  0  0  0  0  0  0  0  0
   18.9586   -3.9205    9.5947 H   0  0  0  0  0  0  0  0  0  0  0  0
   15.7548   -0.0027   11.4195 H   0  0  0  0  0  0  0  0  0  0  0  0
  1  2  1  0
  2  3  1  0
  3  4  1  0
  4  5  1  0
  5  6  1  0
  6  7  1  0
  7  8  1  0
  8  9  1  0
  9 10  2  0
 10 11  1  0
 11 12  1  0
 10 13  1  0
 13 14  1  0
 13 15  1  0
  4 16  1  0
 16 17  1  0
 17 18  1  0
 18 19  1  0
 19 20  2  0
 20 21  1  0
 21 22  2  0
 22 23  1  0
 23 24  2  0
 24 25  1  0
 25 26  2  0
 26 27  1  0
 17  2  1  0
 27 19  1  0
 15  4  1  0
 27 23  1  0
 15  8  2  0
  1 28  1  0
  1 29  1  0
  1 30  1  0
  3 31  1  0
  5 32  1  0
  5 33  1  0
  6 34  1  0
  6 35  1  0
  7 36  1  0
  7 37  1  0
 11 38  1  0
 11 39  1  0
 12 40  1  0
 14 41  1  0
 14 42  1  0
 14 43  1  0
 16 44  1  0
 17 45  1  0
 20 46  1  0
 21 47  1  0
 22 48  1  0
 26 49  1  0
M  END
>  <Energy>  (139) 
6.1511573689030197

>  <compound_id>  (139) 
3185

>  <target_id>  (139) 
1

>  <reference_id>  (139) 
97

>  <inspiration_ids>  (139) 
[103, 97]

>  <energy_score>  (139) 
-35.57502540238167

>  <distance_score>  (139) 
1.3405653362851817

>  <path>  (139) 
/opt/xchem-fragalysis-2/maxwin/BulkDock/SCRATCH/505734/C3185-P97/C3185-P97.minimised.mol

>  <scratch_subdir>  (139) 
/opt/xchem-fragalysis-2/maxwin/BulkDock/SCRATCH/505734/C3185-P97

>  <fragmenstein_runtime>  (139) 
1.7206220626831055

>  <fragmenstein_outcome>  (139) 
too moved

>  <fragmenstein_mode>  (139) 
expansion

>  <fragmenstein_error>  (139) 


$$$$
C2984-P103
     RDKit          3D

 42 45  0  0  0  0  0  0  0  0999 V2000
   12.9811   -4.2716   16.7368 C   0  0  0  0  0  0  0  0  0  0  0  0
   12.8251   -2.8743   16.2472 C   0  0  0  0  0  0  0  0  0  0  0  0
   11.7439   -2.4888   15.3951 C   0  0  0  0  0  0  0  0  0  0  0  0
   11.4670   -1.1252   15.0600 C   0  0  0  0  0  0  0  0  0  0  0  0
   12.3053   -0.1627   15.6167 C   0  0  0  0  0  0  0  0  0  0  0  0
   12.4027    1.2167   15.6873 N   0  0  0  0  0  0  0  0  0  0  0  0
   13.4821    1.4874   16.4450 C   0  0  0  0  0  0  0  0  0  0  0  0
   13.9363    2.8213   16.8902 C   0  0  0  0  0  0  0  0  0  0  0  0
   13.4624    2.9902   18.2215 O   0  0  0  0  0  0  0  0  0  0  0  0
   14.0799    0.3342   16.8103 N   0  0  0  0  0  0  0  0  0  0  0  0
   13.3216   -0.6609   16.3395 C   0  0  0  0  0  0  0  0  0  0  0  0
   13.6885   -1.9052   16.6913 C   0  0  0  0  0  0  0  0  0  0  0  0
   14.8280   -1.8404   17.4896 N   0  0  0  0  0  0  0  0  0  0  0  0
   15.1174   -0.3303   17.6151 C   0  0  0  0  0  0  0  0  0  0  0  0
   16.3528   -0.0549   16.9822 O   0  0  0  0  0  0  0  0  0  0  0  0
   15.0357    0.1504   19.0513 C   0  0  0  0  0  0  0  0  0  0  0  0
   16.1982   -0.7021   20.0644 S   0  0  0  0  0  0  0  0  0  0  0  0
   15.6973   -2.0161   20.4094 O   0  0  0  0  0  0  0  0  0  0  0  0
   17.4994   -0.5519   19.4326 O   0  0  0  0  0  0  0  0  0  0  0  0
   16.2031    0.2547   21.5608 C   0  0  0  0  0  0  0  0  0  0  0  0
   15.1846    0.0524   22.4973 C   0  0  0  0  0  0  0  0  0  0  0  0
   15.1794    0.8011   23.6732 C   0  0  0  0  0  0  0  0  0  0  0  0
   16.1884    1.7361   23.9107 C   0  0  0  0  0  0  0  0  0  0  0  0
   17.2104    1.9219   22.9773 C   0  0  0  0  0  0  0  0  0  0  0  0
   17.2246    1.1775   21.7978 C   0  0  0  0  0  0  0  0  0  0  0  0
   13.9106   -4.7042   16.3615 H   0  0  0  0  0  0  0  0  0  0  0  0
   13.0060   -4.2887   17.8317 H   0  0  0  0  0  0  0  0  0  0  0  0
   12.1380   -4.8881   16.4239 H   0  0  0  0  0  0  0  0  0  0  0  0
   11.0743   -3.2535   14.9992 H   0  0  0  0  0  0  0  0  0  0  0  0
   10.6251   -0.8524   14.4359 H   0  0  0  0  0  0  0  0  0  0  0  0
   15.0276    2.8940   16.8947 H   0  0  0  0  0  0  0  0  0  0  0  0
   13.5333    3.6197   16.2605 H   0  0  0  0  0  0  0  0  0  0  0  0
   12.4895    3.1114   18.1609 H   0  0  0  0  0  0  0  0  0  0  0  0
   15.5917   -2.3237   17.0207 H   0  0  0  0  0  0  0  0  0  0  0  0
   17.0579   -0.4277   17.5482 H   0  0  0  0  0  0  0  0  0  0  0  0
   15.3018    1.2113   19.1086 H   0  0  0  0  0  0  0  0  0  0  0  0
   14.0468    0.0034   19.4905 H   0  0  0  0  0  0  0  0  0  0  0  0
   14.4022   -0.6870   22.3296 H   0  0  0  0  0  0  0  0  0  0  0  0
   14.3932    0.6481   24.4092 H   0  0  0  0  0  0  0  0  0  0  0  0
   16.1841    2.3142   24.8320 H   0  0  0  0  0  0  0  0  0  0  0  0
   17.9998    2.6434   23.1751 H   0  0  0  0  0  0  0  0  0  0  0  0
   18.0316    1.3213   21.0832 H   0  0  0  0  0  0  0  0  0  0  0  0
  1  2  1  0
  2  3  2  0
  3  4  1  0
  4  5  2  0
  5  6  1  0
  6  7  2  0
  7  8  1  0
  8  9  1  0
  7 10  1  0
 10 11  1  0
 11 12  2  0
 12 13  1  0
 13 14  1  0
 14 15  1  0
 14 16  1  0
 16 17  1  0
 17 18  2  0
 17 19  2  0
 17 20  1  0
 20 21  2  0
 21 22  1  0
 22 23  2  0
 23 24  1  0
 24 25  2  0
 12  2  1  0
 25 20  1  0
 11  5  1  0
 14 10  1  0
  1 26  1  0
  1 27  1  0
  1 28  1  0
  3 29  1  0
  4 30  1  0
  8 31  1  0
  8 32  1  0
  9 33  1  0
 13 34  1  0
 15 35  1  0
 16 36  1  0
 16 37  1  0
 21 38  1  0
 22 39  1  0
 23 40  1  0
 24 41  1  0
 25 42  1  0
M  END
>  <Energy>  (140) 
18.863838555909183

>  <compound_id>  (140) 
2984

>  <target_id>  (140) 
1

>  <reference_id>  (140) 
103

>  <inspiration_ids>  (140) 
[103, 98]

>  <energy_score>  (140) 
-39.73024592228046

>  <distance_score>  (140) 
0.8880337547164839

>  <path>  (140) 
/opt/xchem-fragalysis-2/maxwin/BulkDock/SCRATCH/505734/C2984-P103/C2984-P103.minimised.mol

>  <scratch_subdir>  (140) 
/opt/xchem-fragalysis-2/maxwin/BulkDock/SCRATCH/505734/C2984-P103

>  <fragmenstein_runtime>  (140) 
1.4464337825775146

>  <fragmenstein_outcome>  (140) 
acceptable

>  <fragmenstein_mode>  (140) 
expansion

>  <fragmenstein_error>  (140) 


$$$$
C2984-P98
     RDKit          3D

 42 45  0  0  0  0  0  0  0  0999 V2000
   13.0280   -4.3375   16.7453 C   0  0  0  0  0  0  0  0  0  0  0  0
   12.9071   -2.9391   16.2421 C   0  0  0  0  0  0  0  0  0  0  0  0
   11.8304   -2.5282   15.3943 C   0  0  0  0  0  0  0  0  0  0  0  0
   11.5905   -1.1596   15.0450 C   0  0  0  0  0  0  0  0  0  0  0  0
   12.4621   -0.2166   15.5851 C   0  0  0  0  0  0  0  0  0  0  0  0
   12.6087    1.1620   15.6382 N   0  0  0  0  0  0  0  0  0  0  0  0
   13.7117    1.4019   16.3724 C   0  0  0  0  0  0  0  0  0  0  0  0
   14.2362    2.7250   16.7679 C   0  0  0  0  0  0  0  0  0  0  0  0
   13.4857    3.1228   17.9105 O   0  0  0  0  0  0  0  0  0  0  0  0
   14.2512    0.2346   16.7749 N   0  0  0  0  0  0  0  0  0  0  0  0
   13.4649   -0.7397   16.3096 C   0  0  0  0  0  0  0  0  0  0  0  0
   13.7983   -1.9906   16.6726 C   0  0  0  0  0  0  0  0  0  0  0  0
   14.9409   -1.9499   17.4694 N   0  0  0  0  0  0  0  0  0  0  0  0
   15.2597   -0.4526   17.5978 C   0  0  0  0  0  0  0  0  0  0  0  0
   16.5100   -0.1903   16.9927 O   0  0  0  0  0  0  0  0  0  0  0  0
   15.1386    0.0244   19.0342 C   0  0  0  0  0  0  0  0  0  0  0  0
   16.3145   -0.7876   20.0674 S   0  0  0  0  0  0  0  0  0  0  0  0
   15.8796   -2.1328   20.3768 O   0  0  0  0  0  0  0  0  0  0  0  0
   17.6240   -0.5573   19.4785 O   0  0  0  0  0  0  0  0  0  0  0  0
   16.2249    0.1422   21.5782 C   0  0  0  0  0  0  0  0  0  0  0  0
   15.1885   -0.1262   22.4775 C   0  0  0  0  0  0  0  0  0  0  0  0
   15.1076    0.6015   23.6637 C   0  0  0  0  0  0  0  0  0  0  0  0
   16.0599    1.5817   23.9484 C   0  0  0  0  0  0  0  0  0  0  0  0
   17.1006    1.8340   23.0520 C   0  0  0  0  0  0  0  0  0  0  0  0
   17.1903    1.1109   21.8625 C   0  0  0  0  0  0  0  0  0  0  0  0
   13.9337   -4.8103   16.3585 H   0  0  0  0  0  0  0  0  0  0  0  0
   13.0715   -4.3447   17.8397 H   0  0  0  0  0  0  0  0  0  0  0  0
   12.1575   -4.9247   16.4547 H   0  0  0  0  0  0  0  0  0  0  0  0
   11.1355   -3.2789   15.0162 H   0  0  0  0  0  0  0  0  0  0  0  0
   10.7528   -0.8714   14.4221 H   0  0  0  0  0  0  0  0  0  0  0  0
   15.2953    2.6886   17.0374 H   0  0  0  0  0  0  0  0  0  0  0  0
   14.1005    3.4654   15.9742 H   0  0  0  0  0  0  0  0  0  0  0  0
   12.5671    3.2102   17.5900 H   0  0  0  0  0  0  0  0  0  0  0  0
   15.6878   -2.4614   17.0036 H   0  0  0  0  0  0  0  0  0  0  0  0
   17.2001   -0.5755   17.5680 H   0  0  0  0  0  0  0  0  0  0  0  0
   15.3639    1.0949   19.0970 H   0  0  0  0  0  0  0  0  0  0  0  0
   14.1459   -0.1554   19.4552 H   0  0  0  0  0  0  0  0  0  0  0  0
   14.4506   -0.9014   22.2730 H   0  0  0  0  0  0  0  0  0  0  0  0
   14.3069    0.3958   24.3707 H   0  0  0  0  0  0  0  0  0  0  0  0
   15.9973    2.1426   24.8782 H   0  0  0  0  0  0  0  0  0  0  0  0
   17.8464    2.5899   23.2870 H   0  0  0  0  0  0  0  0  0  0  0  0
   18.0119    1.3061   21.1774 H   0  0  0  0  0  0  0  0  0  0  0  0
  1  2  1  0
  2  3  2  0
  3  4  1  0
  4  5  2  0
  5  6  1  0
  6  7  2  0
  7  8  1  0
  8  9  1  0
  7 10  1  0
 10 11  1  0
 11 12  2  0
 12 13  1  0
 13 14  1  0
 14 15  1  0
 14 16  1  0
 16 17  1  0
 17 18  2  0
 17 19  2  0
 17 20  1  0
 20 21  2  0
 21 22  1  0
 22 23  2  0
 23 24  1  0
 24 25  2  0
 12  2  1  0
 25 20  1  0
 11  5  1  0
 14 10  1  0
  1 26  1  0
  1 27  1  0
  1 28  1  0
  3 29  1  0
  4 30  1  0
  8 31  1  0
  8 32  1  0
  9 33  1  0
 13 34  1  0
 15 35  1  0
 16 36  1  0
 16 37  1  0
 21 38  1  0
 22 39  1  0
 23 40  1  0
 24 41  1  0
 25 42  1  0
M  END
>  <Energy>  (141) 
19.233466887762155

>  <compound_id>  (141) 
2984

>  <target_id>  (141) 
1

>  <reference_id>  (141) 
98

>  <inspiration_ids>  (141) 
[103, 98]

>  <energy_score>  (141) 
-39.36061759043011

>  <distance_score>  (141) 
0.8586241189752227

>  <path>  (141) 
/opt/xchem-fragalysis-2/maxwin/BulkDock/SCRATCH/505734/C2984-P98/C2984-P98.minimised.mol

>  <scratch_subdir>  (141) 
/opt/xchem-fragalysis-2/maxwin/BulkDock/SCRATCH/505734/C2984-P98

>  <fragmenstein_runtime>  (141) 
1.3984196186065674

>  <fragmenstein_outcome>  (141) 
acceptable

>  <fragmenstein_mode>  (141) 
expansion

>  <fragmenstein_error>  (141) 


$$$$
C3190-P103
     RDKit          3D

 34 35  0  0  0  0  0  0  0  0999 V2000
   16.2779   -2.3559   21.2118 C   0  0  0  0  0  0  0  0  0  0  0  0
   16.1395   -1.9063   19.8008 C   0  0  0  0  0  0  0  0  0  0  0  0
   16.7703   -0.7887   19.4757 N   0  0  0  0  0  0  0  0  0  0  0  0
   16.4277   -0.4072   17.9271 S   0  0  0  0  0  0  0  0  0  0  0  0
   15.2486   -1.6419   17.6474 C   0  0  0  0  0  0  0  0  0  0  0  0
   14.1976   -1.4579   16.5090 C   0  0  0  0  0  0  0  0  0  0  0  0
   12.9035   -1.2832   17.2561 C   0  0  0  0  0  0  0  0  0  0  0  0
   14.4396   -0.1865   15.6554 C   0  0  0  0  0  0  0  0  0  0  0  0
   13.3040    0.2044   14.6947 C   0  0  0  0  0  0  0  0  0  0  0  0
   12.4869    1.3694   15.2616 C   0  0  0  0  0  0  0  0  0  0  0  0
   12.4184   -0.9697   14.2682 C   0  0  0  0  0  0  0  0  0  0  0  0
   13.1691   -2.2916   14.3000 C   0  0  0  0  0  0  0  0  0  0  0  0
   14.0620   -2.2370   13.2593 F   0  0  0  0  0  0  0  0  0  0  0  0
   13.9995   -2.6385   15.5660 C   0  0  0  0  0  0  0  0  0  0  0  0
   15.3794   -2.5232   18.7313 C   0  0  0  0  0  0  0  0  0  0  0  0
   14.8027   -3.8201   18.8867 C   0  0  0  0  0  0  0  0  0  0  0  0
   14.4568   -4.9154   19.0536 N   0  0  0  0  0  0  0  0  0  0  0  0
   16.8013   -1.6185   21.8299 H   0  0  0  0  0  0  0  0  0  0  0  0
   16.8407   -3.2939   21.2563 H   0  0  0  0  0  0  0  0  0  0  0  0
   15.2914   -2.5229   21.6567 H   0  0  0  0  0  0  0  0  0  0  0  0
   12.0042   -1.1115   16.6778 H   0  0  0  0  0  0  0  0  0  0  0  0
   12.7078   -2.2105   17.8019 H   0  0  0  0  0  0  0  0  0  0  0  0
   13.0258   -0.4195   17.9147 H   0  0  0  0  0  0  0  0  0  0  0  0
   15.3483   -0.3468   15.0562 H   0  0  0  0  0  0  0  0  0  0  0  0
   14.6509    0.6879   16.2821 H   0  0  0  0  0  0  0  0  0  0  0  0
   13.7885    0.5923   13.7870 H   0  0  0  0  0  0  0  0  0  0  0  0
   11.9815    1.1125   16.1943 H   0  0  0  0  0  0  0  0  0  0  0  0
   13.1258    2.2384   15.4525 H   0  0  0  0  0  0  0  0  0  0  0  0
   11.7194    1.6787   14.5435 H   0  0  0  0  0  0  0  0  0  0  0  0
   12.0905   -0.7764   13.2426 H   0  0  0  0  0  0  0  0  0  0  0  0
   11.4888   -1.0321   14.8400 H   0  0  0  0  0  0  0  0  0  0  0  0
   12.4663   -3.0985   14.0710 H   0  0  0  0  0  0  0  0  0  0  0  0
   13.5174   -3.4742   16.0896 H   0  0  0  0  0  0  0  0  0  0  0  0
   14.9865   -3.0043   15.2544 H   0  0  0  0  0  0  0  0  0  0  0  0
  1  2  1  0
  2  3  2  0
  3  4  1  0
  4  5  1  0
  5  6  1  0
  6  7  1  0
  6  8  1  0
  8  9  1  0
  9 10  1  0
  9 11  1  0
 11 12  1  0
 12 13  1  0
 12 14  1  0
  5 15  2  0
 15 16  1  0
 16 17  3  0
 15  2  1  0
 14  6  1  0
  1 18  1  0
  1 19  1  0
  1 20  1  0
  7 21  1  0
  7 22  1  0
  7 23  1  0
  8 24  1  0
  8 25  1  0
  9 26  1  0
 10 27  1  0
 10 28  1  0
 10 29  1  0
 11 30  1  0
 11 31  1  0
 12 32  1  0
 14 33  1  0
 14 34  1  0
M  END
>  <Energy>  (142) 
53.172665564348506

>  <compound_id>  (142) 
3190

>  <target_id>  (142) 
1

>  <reference_id>  (142) 
103

>  <inspiration_ids>  (142) 
[103, 184]

>  <energy_score>  (142) 
-27.98999206530354

>  <distance_score>  (142) 
1.9950215740717319

>  <path>  (142) 
/opt/xchem-fragalysis-2/maxwin/BulkDock/SCRATCH/505734/C3190-P103/C3190-P103.minimised.mol

>  <scratch_subdir>  (142) 
/opt/xchem-fragalysis-2/maxwin/BulkDock/SCRATCH/505734/C3190-P103

>  <fragmenstein_runtime>  (142) 
7.079815149307251

>  <fragmenstein_outcome>  (142) 
too moved

>  <fragmenstein_mode>  (142) 
expansion

>  <fragmenstein_error>  (142) 


$$$$
C3190-P184
     RDKit          3D

 34 35  0  0  0  0  0  0  0  0999 V2000
   16.3883   -2.2065   21.3522 C   0  0  0  0  0  0  0  0  0  0  0  0
   16.2130   -1.7953   19.9335 C   0  0  0  0  0  0  0  0  0  0  0  0
   16.8271   -0.6836   19.5594 N   0  0  0  0  0  0  0  0  0  0  0  0
   16.4398   -0.3449   18.0115 S   0  0  0  0  0  0  0  0  0  0  0  0
   15.2769   -1.6029   17.7941 C   0  0  0  0  0  0  0  0  0  0  0  0
   14.2237   -1.4918   16.6539 C   0  0  0  0  0  0  0  0  0  0  0  0
   12.9133   -1.3782   17.3894 C   0  0  0  0  0  0  0  0  0  0  0  0
   14.4069   -0.2331   15.7723 C   0  0  0  0  0  0  0  0  0  0  0  0
   13.2981    0.0323   14.7400 C   0  0  0  0  0  0  0  0  0  0  0  0
   12.3871    1.1708   15.2096 C   0  0  0  0  0  0  0  0  0  0  0  0
   12.5118   -1.2200   14.3299 C   0  0  0  0  0  0  0  0  0  0  0  0
   13.3532   -2.4854   14.4306 C   0  0  0  0  0  0  0  0  0  0  0  0
   14.2930   -2.4204   13.4331 F   0  0  0  0  0  0  0  0  0  0  0  0
   14.1298   -2.7080   15.7473 C   0  0  0  0  0  0  0  0  0  0  0  0
   15.4257   -2.4438   18.9061 C   0  0  0  0  0  0  0  0  0  0  0  0
   14.8367   -3.7250   19.1292 C   0  0  0  0  0  0  0  0  0  0  0  0
   14.4639   -4.7965   19.3706 N   0  0  0  0  0  0  0  0  0  0  0  0
   16.9558   -1.4674   21.9280 H   0  0  0  0  0  0  0  0  0  0  0  0
   16.9243   -3.1595   21.4069 H   0  0  0  0  0  0  0  0  0  0  0  0
   15.4138   -2.3292   21.8362 H   0  0  0  0  0  0  0  0  0  0  0  0
   12.0316   -1.1515   16.8005 H   0  0  0  0  0  0  0  0  0  0  0  0
   12.6996   -2.3320   17.8791 H   0  0  0  0  0  0  0  0  0  0  0  0
   13.0361   -0.5777   18.1186 H   0  0  0  0  0  0  0  0  0  0  0  0
   15.3526   -0.3377   15.2197 H   0  0  0  0  0  0  0  0  0  0  0  0
   14.5209    0.6695   16.3856 H   0  0  0  0  0  0  0  0  0  0  0  0
   13.8012    0.4057   13.8363 H   0  0  0  0  0  0  0  0  0  0  0  0
   11.8638    0.9360   16.1392 H   0  0  0  0  0  0  0  0  0  0  0  0
   12.9624    2.0890   15.3708 H   0  0  0  0  0  0  0  0  0  0  0  0
   11.6296    1.3884   14.4485 H   0  0  0  0  0  0  0  0  0  0  0  0
   12.1934   -1.0871   13.2900 H   0  0  0  0  0  0  0  0  0  0  0  0
   11.5835   -1.3339   14.8967 H   0  0  0  0  0  0  0  0  0  0  0  0
   12.7282   -3.3542   14.2048 H   0  0  0  0  0  0  0  0  0  0  0  0
   13.6614   -3.5321   16.2996 H   0  0  0  0  0  0  0  0  0  0  0  0
   15.1502   -3.0280   15.4990 H   0  0  0  0  0  0  0  0  0  0  0  0
  1  2  1  0
  2  3  2  0
  3  4  1  0
  4  5  1  0
  5  6  1  0
  6  7  1  0
  6  8  1  0
  8  9  1  0
  9 10  1  0
  9 11  1  0
 11 12  1  0
 12 13  1  0
 12 14  1  0
  5 15  2  0
 15 16  1  0
 16 17  3  0
 15  2  1  0
 14  6  1  0
  1 18  1  0
  1 19  1  0
  1 20  1  0
  7 21  1  0
  7 22  1  0
  7 23  1  0
  8 24  1  0
  8 25  1  0
  9 26  1  0
 10 27  1  0
 10 28  1  0
 10 29  1  0
 11 30  1  0
 11 31  1  0
 12 32  1  0
 14 33  1  0
 14 34  1  0
M  END
>  <Energy>  (143) 
49.10117060144205

>  <compound_id>  (143) 
3190

>  <target_id>  (143) 
1

>  <reference_id>  (143) 
184

>  <inspiration_ids>  (143) 
[103, 184]

>  <energy_score>  (143) 
-32.061487028209

>  <distance_score>  (143) 
1.9522287524534796

>  <path>  (143) 
/opt/xchem-fragalysis-2/maxwin/BulkDock/SCRATCH/505734/C3190-P184/C3190-P184.minimised.mol

>  <scratch_subdir>  (143) 
/opt/xchem-fragalysis-2/maxwin/BulkDock/SCRATCH/505734/C3190-P184

>  <fragmenstein_runtime>  (143) 
8.552058219909668

>  <fragmenstein_outcome>  (143) 
too moved

>  <fragmenstein_mode>  (143) 
expansion

>  <fragmenstein_error>  (143) 


$$$$
C3192-P104
     RDKit          3D

 47 49  0  0  0  0  0  0  0  0999 V2000
   -9.2788  -26.6132   27.6585 C   0  0  0  0  0  0  0  0  0  0  0  0
  -10.7083  -26.2214   27.3019 C   0  0  0  0  0  0  0  0  0  0  0  0
  -11.3953  -27.3592   26.5463 C   0  0  0  0  0  0  0  0  0  0  0  0
  -12.3606  -27.0370   25.4544 C   0  0  0  0  0  0  0  0  0  0  0  0
  -11.7348  -27.3401   24.2886 F   0  0  0  0  0  0  0  0  0  0  0  0
  -12.8191  -25.6158   25.3568 C   0  0  0  0  0  0  0  0  0  0  0  0
  -11.7276  -24.5230   25.5792 C   0  0  0  0  0  0  0  0  0  0  0  0
  -12.5533  -22.9006   25.1369 S   0  0  0  0  0  0  0  0  0  0  0  0
  -14.1996  -23.1968   25.2327 N   0  0  0  0  0  0  0  0  0  0  0  0
  -12.3918  -22.6454   23.7279 O   0  0  0  0  0  0  0  0  0  0  0  0
  -12.3287  -21.8507   26.0965 O   0  0  0  0  0  0  0  0  0  0  0  0
  -11.0617  -24.6759   26.9777 C   0  0  0  0  0  0  0  0  0  0  0  0
  -12.1218  -24.3355   27.9547 C   0  0  0  0  0  0  0  0  0  0  0  0
  -12.3710  -22.9927   28.3703 N   0  0  0  0  0  0  0  0  0  0  0  0
  -11.2920  -22.4381   29.1343 C   0  0  0  0  0  0  0  0  0  0  0  0
  -11.1314  -22.9336   30.5984 C   0  0  0  0  0  0  0  0  0  0  0  0
  -11.7856  -22.2293   31.6089 C   0  0  0  0  0  0  0  0  0  0  0  0
  -11.9651  -22.7455   32.8801 C   0  0  0  0  0  0  0  0  0  0  0  0
  -11.3598  -23.9446   33.2055 C   0  0  0  0  0  0  0  0  0  0  0  0
  -10.4533  -24.5294   32.3468 C   0  0  0  0  0  0  0  0  0  0  0  0
  -10.4375  -24.0959   31.0304 C   0  0  0  0  0  0  0  0  0  0  0  0
  -10.2444  -22.4648   28.1291 N   0  0  0  0  0  0  0  0  0  0  0  0
   -9.9289  -23.7772   27.5431 C   0  0  0  0  0  0  0  0  0  0  0  0
   -8.5799  -25.8084   27.8537 H   0  0  0  0  0  0  0  0  0  0  0  0
   -8.8121  -27.2361   26.9009 H   0  0  0  0  0  0  0  0  0  0  0  0
   -9.3219  -27.2337   28.5597 H   0  0  0  0  0  0  0  0  0  0  0  0
  -11.1204  -26.3983   28.2937 H   0  0  0  0  0  0  0  0  0  0  0  0
  -11.9064  -28.0052   27.2710 H   0  0  0  0  0  0  0  0  0  0  0  0
  -10.6483  -28.0082   26.0922 H   0  0  0  0  0  0  0  0  0  0  0  0
  -13.2272  -27.7048   25.5062 H   0  0  0  0  0  0  0  0  0  0  0  0
  -13.2736  -25.4986   24.3738 H   0  0  0  0  0  0  0  0  0  0  0  0
  -13.6601  -25.4969   26.0451 H   0  0  0  0  0  0  0  0  0  0  0  0
  -10.9407  -24.6273   24.8306 H   0  0  0  0  0  0  0  0  0  0  0  0
  -14.5400  -23.3481   24.2822 H   0  0  0  0  0  0  0  0  0  0  0  0
  -14.6350  -22.3524   25.6127 H   0  0  0  0  0  0  0  0  0  0  0  0
  -11.7040  -24.8064   28.8142 H   0  0  0  0  0  0  0  0  0  0  0  0
  -13.0705  -24.7833   27.6998 H   0  0  0  0  0  0  0  0  0  0  0  0
  -12.5172  -22.3501   27.5938 H   0  0  0  0  0  0  0  0  0  0  0  0
  -11.5142  -21.3725   29.2640 H   0  0  0  0  0  0  0  0  0  0  0  0
  -12.2919  -21.3277   31.3640 H   0  0  0  0  0  0  0  0  0  0  0  0
  -12.6118  -22.2457   33.5915 H   0  0  0  0  0  0  0  0  0  0  0  0
  -11.5797  -24.4202   34.1535 H   0  0  0  0  0  0  0  0  0  0  0  0
   -9.9075  -25.4232   32.6313 H   0  0  0  0  0  0  0  0  0  0  0  0
   -9.9129  -24.7355   30.3286 H   0  0  0  0  0  0  0  0  0  0  0  0
  -10.5969  -21.8170   27.4235 H   0  0  0  0  0  0  0  0  0  0  0  0
   -9.1067  -23.7259   26.8379 H   0  0  0  0  0  0  0  0  0  0  0  0
   -9.4744  -24.2815   28.3888 H   0  0  0  0  0  0  0  0  0  0  0  0
  1  2  1  0
  2  3  1  0
  3  4  1  0
  4  5  1  0
  4  6  1  0
  6  7  1  0
  7  8  1  0
  8  9  1  0
  8 10  2  0
  8 11  2  0
  7 12  1  0
 12 13  1  0
 13 14  1  0
 14 15  1  0
 15 16  1  0
 16 17  2  0
 17 18  1  0
 18 19  2  0
 19 20  1  0
 20 21  2  0
 15 22  1  0
 22 23  1  0
 12  2  1  0
 21 16  1  0
 23 12  1  0
  1 24  1  0
  1 25  1  0
  1 26  1  0
  2 27  1  0
  3 28  1  0
  3 29  1  0
  4 30  1  0
  6 31  1  0
  6 32  1  0
  7 33  1  0
  9 34  1  0
  9 35  1  0
 13 36  1  0
 13 37  1  0
 14 38  1  0
 15 39  1  0
 17 40  1  0
 18 41  1  0
 19 42  1  0
 20 43  1  0
 21 44  1  0
 22 45  1  0
 23 46  1  0
 23 47  1  0
M  END
>  <Energy>  (144) 
-45.777192916593528

>  <compound_id>  (144) 
3192

>  <target_id>  (144) 
1

>  <reference_id>  (144) 
104

>  <inspiration_ids>  (144) 
[104, 3]

>  <energy_score>  (144) 
10.441747740074092

>  <distance_score>  (144) 
1.607545785673952

>  <path>  (144) 
/opt/xchem-fragalysis-2/maxwin/BulkDock/SCRATCH/505734/C3192-P104/C3192-P104.minimised.mol

>  <scratch_subdir>  (144) 
/opt/xchem-fragalysis-2/maxwin/BulkDock/SCRATCH/505734/C3192-P104

>  <fragmenstein_runtime>  (144) 
7.966289758682251

>  <fragmenstein_outcome>  (144) 
too moved

>  <fragmenstein_mode>  (144) 
expansion

>  <fragmenstein_error>  (144) 


$$$$
C3192-P3
     RDKit          3D

 47 49  0  0  0  0  0  0  0  0999 V2000
  -11.2595  -25.9900   29.7109 C   0  0  0  0  0  0  0  0  0  0  0  0
  -11.9751  -25.6040   28.4166 C   0  0  0  0  0  0  0  0  0  0  0  0
  -11.7751  -26.5990   27.3075 C   0  0  0  0  0  0  0  0  0  0  0  0
  -12.9908  -26.5677   26.3973 C   0  0  0  0  0  0  0  0  0  0  0  0
  -12.5804  -27.0178   25.1844 F   0  0  0  0  0  0  0  0  0  0  0  0
  -13.6085  -25.1710   26.2407 C   0  0  0  0  0  0  0  0  0  0  0  0
  -12.5740  -24.0645   26.4978 C   0  0  0  0  0  0  0  0  0  0  0  0
  -12.9605  -22.4742   25.7567 S   0  0  0  0  0  0  0  0  0  0  0  0
  -14.4942  -22.7003   25.1124 N   0  0  0  0  0  0  0  0  0  0  0  0
  -12.1422  -22.2817   24.5848 O   0  0  0  0  0  0  0  0  0  0  0  0
  -13.1404  -21.4412   26.7387 O   0  0  0  0  0  0  0  0  0  0  0  0
  -11.9489  -24.0882   27.9144 C   0  0  0  0  0  0  0  0  0  0  0  0
  -12.5611  -23.4532   29.1041 C   0  0  0  0  0  0  0  0  0  0  0  0
  -12.3459  -22.0351   29.2586 N   0  0  0  0  0  0  0  0  0  0  0  0
  -11.0529  -21.4798   29.3746 C   0  0  0  0  0  0  0  0  0  0  0  0
  -10.4271  -21.7462   30.7314 C   0  0  0  0  0  0  0  0  0  0  0  0
  -10.9010  -20.9474   31.7973 C   0  0  0  0  0  0  0  0  0  0  0  0
  -10.4153  -21.0804   33.0965 C   0  0  0  0  0  0  0  0  0  0  0  0
   -9.4157  -22.0018   33.3624 C   0  0  0  0  0  0  0  0  0  0  0  0
   -8.9268  -22.7995   32.3367 C   0  0  0  0  0  0  0  0  0  0  0  0
   -9.4355  -22.6806   31.0418 C   0  0  0  0  0  0  0  0  0  0  0  0
  -10.5201  -21.8683   28.1045 N   0  0  0  0  0  0  0  0  0  0  0  0
  -10.6565  -23.2889   27.8508 C   0  0  0  0  0  0  0  0  0  0  0  0
  -11.9323  -25.8654   30.5704 H   0  0  0  0  0  0  0  0  0  0  0  0
  -10.3877  -25.3861   29.9347 H   0  0  0  0  0  0  0  0  0  0  0  0
  -11.0140  -27.0548   29.7180 H   0  0  0  0  0  0  0  0  0  0  0  0
  -13.0245  -25.7898   28.7120 H   0  0  0  0  0  0  0  0  0  0  0  0
  -11.6710  -27.6071   27.7166 H   0  0  0  0  0  0  0  0  0  0  0  0
  -10.8765  -26.3852   26.7347 H   0  0  0  0  0  0  0  0  0  0  0  0
  -13.7599  -27.2645   26.7479 H   0  0  0  0  0  0  0  0  0  0  0  0
  -14.0271  -25.1118   25.2316 H   0  0  0  0  0  0  0  0  0  0  0  0
  -14.4416  -25.0461   26.9430 H   0  0  0  0  0  0  0  0  0  0  0  0
  -11.7337  -24.3679   25.8641 H   0  0  0  0  0  0  0  0  0  0  0  0
  -14.3476  -22.8750   24.1084 H   0  0  0  0  0  0  0  0  0  0  0  0
  -15.0267  -21.8414   25.2904 H   0  0  0  0  0  0  0  0  0  0  0  0
  -12.1476  -23.8675   30.0194 H   0  0  0  0  0  0  0  0  0  0  0  0
  -13.6194  -23.7425   29.0971 H   0  0  0  0  0  0  0  0  0  0  0  0
  -12.6833  -21.5853   28.3912 H   0  0  0  0  0  0  0  0  0  0  0  0
  -11.1384  -20.3857   29.3162 H   0  0  0  0  0  0  0  0  0  0  0  0
  -11.6903  -20.2141   31.6184 H   0  0  0  0  0  0  0  0  0  0  0  0
  -10.8466  -20.4755   33.8906 H   0  0  0  0  0  0  0  0  0  0  0  0
   -9.0272  -22.1145   34.3667 H   0  0  0  0  0  0  0  0  0  0  0  0
   -8.1444  -23.5274   32.5381 H   0  0  0  0  0  0  0  0  0  0  0  0
   -9.0071  -23.3391   30.3062 H   0  0  0  0  0  0  0  0  0  0  0  0
   -9.5545  -21.5674   28.0591 H   0  0  0  0  0  0  0  0  0  0  0  0
  -10.1930  -23.4548   26.8816 H   0  0  0  0  0  0  0  0  0  0  0  0
  -10.1655  -23.6312   28.7297 H   0  0  0  0  0  0  0  0  0  0  0  0
  1  2  1  0
  2  3  1  0
  3  4  1  0
  4  5  1  0
  4  6  1  0
  6  7  1  0
  7  8  1  0
  8  9  1  0
  8 10  2  0
  8 11  2  0
  7 12  1  0
 12 13  1  0
 13 14  1  0
 14 15  1  0
 15 16  1  0
 16 17  2  0
 17 18  1  0
 18 19  2  0
 19 20  1  0
 20 21  2  0
 15 22  1  0
 22 23  1  0
 12  2  1  0
 21 16  1  0
 23 12  1  0
  1 24  1  0
  1 25  1  0
  1 26  1  0
  2 27  1  0
  3 28  1  0
  3 29  1  0
  4 30  1  0
  6 31  1  0
  6 32  1  0
  7 33  1  0
  9 34  1  0
  9 35  1  0
 13 36  1  0
 13 37  1  0
 14 38  1  0
 15 39  1  0
 17 40  1  0
 18 41  1  0
 19 42  1  0
 20 43  1  0
 21 44  1  0
 22 45  1  0
 23 46  1  0
 23 47  1  0
M  END
>  <Energy>  (145) 
-64.813240267258607

>  <compound_id>  (145) 
3192

>  <target_id>  (145) 
1

>  <reference_id>  (145) 
3

>  <inspiration_ids>  (145) 
[104, 3]

>  <energy_score>  (145) 
-8.594299610591506

>  <distance_score>  (145) 
1.0977861844569174

>  <path>  (145) 
/opt/xchem-fragalysis-2/maxwin/BulkDock/SCRATCH/505734/C3192-P3/C3192-P3.minimised.mol

>  <scratch_subdir>  (145) 
/opt/xchem-fragalysis-2/maxwin/BulkDock/SCRATCH/505734/C3192-P3

>  <fragmenstein_runtime>  (145) 
7.062915325164795

>  <fragmenstein_outcome>  (145) 
too moved

>  <fragmenstein_mode>  (145) 
expansion

>  <fragmenstein_error>  (145) 


$$$$
C3194-P104
     RDKit          3D

 25 25  0  0  0  0  0  0  0  0999 V2000
   -9.4576  -25.5869   31.1164 C   0  0  0  0  0  0  0  0  0  0  0  0
   -9.7730  -26.1595   29.8064 N   0  0  0  0  0  0  0  0  0  0  0  0
   -9.8454  -25.1028   28.8158 C   0  0  0  0  0  0  0  0  0  0  0  0
  -10.7330  -25.3639   27.6347 C   0  0  0  0  0  0  0  0  0  0  0  0
  -10.9513  -26.6286   27.0977 C   0  0  0  0  0  0  0  0  0  0  0  0
  -11.8433  -26.7850   26.0441 C   0  0  0  0  0  0  0  0  0  0  0  0
  -12.0639  -28.0071   25.5509 F   0  0  0  0  0  0  0  0  0  0  0  0
  -12.5112  -25.6999   25.4919 C   0  0  0  0  0  0  0  0  0  0  0  0
  -12.2452  -24.4294   25.9910 C   0  0  0  0  0  0  0  0  0  0  0  0
  -13.0866  -23.0094   25.3882 S   0  0  0  0  0  0  0  0  0  0  0  0
  -14.6536  -23.5840   25.1925 N   0  0  0  0  0  0  0  0  0  0  0  0
  -12.6292  -22.7027   24.0584 O   0  0  0  0  0  0  0  0  0  0  0  0
  -13.1349  -22.0358   26.4481 O   0  0  0  0  0  0  0  0  0  0  0  0
  -11.3671  -24.2592   27.0546 C   0  0  0  0  0  0  0  0  0  0  0  0
   -9.9911  -24.6535   31.3244 H   0  0  0  0  0  0  0  0  0  0  0  0
   -9.7823  -26.2718   31.8854 H   0  0  0  0  0  0  0  0  0  0  0  0
   -8.3894  -25.4281   31.2398 H   0  0  0  0  0  0  0  0  0  0  0  0
  -10.6881  -26.5854   29.8990 H   0  0  0  0  0  0  0  0  0  0  0  0
   -8.8498  -24.8738   28.4367 H   0  0  0  0  0  0  0  0  0  0  0  0
  -10.2854  -24.2211   29.2811 H   0  0  0  0  0  0  0  0  0  0  0  0
  -10.4504  -27.4915   27.5193 H   0  0  0  0  0  0  0  0  0  0  0  0
  -13.2215  -25.8629   24.6911 H   0  0  0  0  0  0  0  0  0  0  0  0
  -14.8888  -23.4914   24.2082 H   0  0  0  0  0  0  0  0  0  0  0  0
  -15.2976  -23.0883   25.8073 H   0  0  0  0  0  0  0  0  0  0  0  0
  -11.1910  -23.2618   27.4614 H   0  0  0  0  0  0  0  0  0  0  0  0
  1  2  1  0
  2  3  1  0
  3  4  1  0
  4  5  2  0
  5  6  1  0
  6  7  1  0
  6  8  2  0
  8  9  1  0
  9 10  1  0
 10 11  1  0
 10 12  2  0
 10 13  2  0
  9 14  2  0
 14  4  1  0
  1 15  1  0
  1 16  1  0
  1 17  1  0
  2 18  1  0
  3 19  1  0
  3 20  1  0
  5 21  1  0
  8 22  1  0
 11 23  1  0
 11 24  1  0
 14 25  1  0
M  END
>  <Energy>  (146) 
-69.054764095252395

>  <compound_id>  (146) 
3194

>  <target_id>  (146) 
1

>  <reference_id>  (146) 
104

>  <inspiration_ids>  (146) 
[104, 35]

>  <energy_score>  (146) 
-19.186641873700307

>  <distance_score>  (146) 
0.922050694924141

>  <path>  (146) 
/opt/xchem-fragalysis-2/maxwin/BulkDock/SCRATCH/505734/C3194-P104/C3194-P104.minimised.mol

>  <scratch_subdir>  (146) 
/opt/xchem-fragalysis-2/maxwin/BulkDock/SCRATCH/505734/C3194-P104

>  <fragmenstein_runtime>  (146) 
2.067460298538208

>  <fragmenstein_outcome>  (146) 
acceptable

>  <fragmenstein_mode>  (146) 
expansion

>  <fragmenstein_error>  (146) 


$$$$
C3194-P35
     RDKit          3D

 25 25  0  0  0  0  0  0  0  0999 V2000
   -9.8641  -26.3763   32.4631 C   0  0  0  0  0  0  0  0  0  0  0  0
  -10.6480  -26.5983   31.2490 N   0  0  0  0  0  0  0  0  0  0  0  0
  -10.0282  -25.8501   30.1573 C   0  0  0  0  0  0  0  0  0  0  0  0
  -10.7641  -26.0438   28.8638 C   0  0  0  0  0  0  0  0  0  0  0  0
  -10.8871  -27.3056   28.2814 C   0  0  0  0  0  0  0  0  0  0  0  0
  -11.4779  -27.4421   27.0312 C   0  0  0  0  0  0  0  0  0  0  0  0
  -11.5328  -28.6498   26.4718 F   0  0  0  0  0  0  0  0  0  0  0  0
  -11.9536  -26.3557   26.3243 C   0  0  0  0  0  0  0  0  0  0  0  0
  -11.8095  -25.1085   26.9010 C   0  0  0  0  0  0  0  0  0  0  0  0
  -12.0643  -23.6873   25.9215 S   0  0  0  0  0  0  0  0  0  0  0  0
  -13.6766  -23.7754   25.4536 N   0  0  0  0  0  0  0  0  0  0  0  0
  -11.2871  -23.8548   24.7256 O   0  0  0  0  0  0  0  0  0  0  0  0
  -11.8766  -22.6047   26.8536 O   0  0  0  0  0  0  0  0  0  0  0  0
  -11.2475  -24.9412   28.1697 C   0  0  0  0  0  0  0  0  0  0  0  0
   -9.7827  -25.3117   32.7075 H   0  0  0  0  0  0  0  0  0  0  0  0
  -10.3569  -26.8668   33.3060 H   0  0  0  0  0  0  0  0  0  0  0  0
   -8.8619  -26.8031   32.3708 H   0  0  0  0  0  0  0  0  0  0  0  0
  -11.5796  -26.2098   31.4152 H   0  0  0  0  0  0  0  0  0  0  0  0
   -8.9938  -26.1673   30.0076 H   0  0  0  0  0  0  0  0  0  0  0  0
  -10.0054  -24.7864   30.4155 H   0  0  0  0  0  0  0  0  0  0  0  0
  -10.4921  -28.1811   28.7905 H   0  0  0  0  0  0  0  0  0  0  0  0
  -12.3462  -26.4681   25.3235 H   0  0  0  0  0  0  0  0  0  0  0  0
  -14.2241  -24.4365   25.9947 H   0  0  0  0  0  0  0  0  0  0  0  0
  -13.9998  -22.7970   25.5301 H   0  0  0  0  0  0  0  0  0  0  0  0
  -11.1037  -23.9456   28.5880 H   0  0  0  0  0  0  0  0  0  0  0  0
  1  2  1  0
  2  3  1  0
  3  4  1  0
  4  5  2  0
  5  6  1  0
  6  7  1  0
  6  8  2  0
  8  9  1  0
  9 10  1  0
 10 11  1  0
 10 12  2  0
 10 13  2  0
  9 14  2  0
 14  4  1  0
  1 15  1  0
  1 16  1  0
  1 17  1  0
  2 18  1  0
  3 19  1  0
  3 20  1  0
  5 21  1  0
  8 22  1  0
 11 23  1  0
 11 24  1  0
 14 25  1  0
M  END
>  <Energy>  (147) 
-64.219296573936987

>  <compound_id>  (147) 
3194

>  <target_id>  (147) 
1

>  <reference_id>  (147) 
35

>  <inspiration_ids>  (147) 
[104, 35]

>  <energy_score>  (147) 
-14.351174352384362

>  <distance_score>  (147) 
1.1583157787384581

>  <path>  (147) 
/opt/xchem-fragalysis-2/maxwin/BulkDock/SCRATCH/505734/C3194-P35/C3194-P35.minimised.mol

>  <scratch_subdir>  (147) 
/opt/xchem-fragalysis-2/maxwin/BulkDock/SCRATCH/505734/C3194-P35

>  <fragmenstein_runtime>  (147) 
1.4950120449066162

>  <fragmenstein_outcome>  (147) 
too moved

>  <fragmenstein_mode>  (147) 
expansion

>  <fragmenstein_error>  (147) 


$$$$
C3195-P104
     RDKit          3D

 38 39  0  0  0  0  0  0  0  0999 V2000
  -11.2277  -22.0416   31.5104 C   0  0  0  0  0  0  0  0  0  0  0  0
  -11.2993  -22.3652   30.0499 C   0  0  0  0  0  0  0  0  0  0  0  0
  -11.7494  -21.4438   29.1226 C   0  0  0  0  0  0  0  0  0  0  0  0
  -12.0155  -21.7479   27.7951 C   0  0  0  0  0  0  0  0  0  0  0  0
  -12.0664  -22.9671   27.3810 N   0  0  0  0  0  0  0  0  0  0  0  0
  -11.6233  -23.7913   28.3191 C   0  0  0  0  0  0  0  0  0  0  0  0
  -11.0195  -23.6047   29.5483 C   0  0  0  0  0  0  0  0  0  0  0  0
  -10.4856  -24.6191   30.3649 N   0  0  0  0  0  0  0  0  0  0  0  0
  -10.0271  -25.9322   29.8715 C   0  0  0  0  0  0  0  0  0  0  0  0
  -10.8881  -26.6703   28.9321 O   0  0  0  0  0  0  0  0  0  0  0  0
  -11.0652  -26.2192   27.6011 C   0  0  0  0  0  0  0  0  0  0  0  0
   -9.8434  -26.1439   27.1327 C   0  0  0  0  0  0  0  0  0  0  0  0
   -9.0152  -24.9708   27.4318 C   0  0  0  0  0  0  0  0  0  0  0  0
   -9.5957  -27.3854   26.6801 C   0  0  0  0  0  0  0  0  0  0  0  0
  -10.6530  -28.1151   25.9660 C   0  0  0  0  0  0  0  0  0  0  0  0
  -10.3045  -29.0225   25.0355 F   0  0  0  0  0  0  0  0  0  0  0  0
  -11.9712  -27.8568   26.0940 C   0  0  0  0  0  0  0  0  0  0  0  0
  -12.1334  -26.6848   26.7511 C   0  0  0  0  0  0  0  0  0  0  0  0
  -12.9035  -25.5080   25.5793 S   0  0  0  0  0  0  0  0  0  0  0  0
  -14.0410  -24.7506   26.5260 N   0  0  0  0  0  0  0  0  0  0  0  0
  -13.6958  -26.2400   24.6117 O   0  0  0  0  0  0  0  0  0  0  0  0
  -11.9316  -24.5394   25.1460 O   0  0  0  0  0  0  0  0  0  0  0  0
  -10.6997  -22.8044   32.0897 H   0  0  0  0  0  0  0  0  0  0  0  0
  -12.2343  -21.9525   31.9293 H   0  0  0  0  0  0  0  0  0  0  0  0
  -10.6916  -21.1048   31.6633 H   0  0  0  0  0  0  0  0  0  0  0  0
  -12.0384  -20.4970   29.4722 H   0  0  0  0  0  0  0  0  0  0  0  0
  -12.3375  -21.0678   27.0352 H   0  0  0  0  0  0  0  0  0  0  0  0
  -12.1336  -24.7067   28.1917 H   0  0  0  0  0  0  0  0  0  0  0  0
  -11.2716  -24.8085   30.9968 H   0  0  0  0  0  0  0  0  0  0  0  0
   -9.8849  -26.5858   30.7381 H   0  0  0  0  0  0  0  0  0  0  0  0
   -9.0153  -25.8310   29.5265 H   0  0  0  0  0  0  0  0  0  0  0  0
   -7.9940  -25.2715   27.6420 H   0  0  0  0  0  0  0  0  0  0  0  0
   -9.2368  -24.3718   28.2913 H   0  0  0  0  0  0  0  0  0  0  0  0
   -9.1823  -24.2190   26.6585 H   0  0  0  0  0  0  0  0  0  0  0  0
   -8.5625  -27.6937   26.5694 H   0  0  0  0  0  0  0  0  0  0  0  0
  -12.6828  -28.3246   25.4260 H   0  0  0  0  0  0  0  0  0  0  0  0
  -13.7102  -23.7858   26.6828 H   0  0  0  0  0  0  0  0  0  0  0  0
  -14.9674  -24.7966   26.1045 H   0  0  0  0  0  0  0  0  0  0  0  0
  1  2  1  0
  2  3  2  0
  3  4  1  0
  4  5  2  0
  5  6  1  0
  6  7  2  0
  7  8  1  0
  8  9  1  0
  9 10  1  0
 10 11  1  0
 11 12  2  0
 12 13  1  0
 12 14  1  0
 14 15  2  0
 15 16  1  0
 15 17  1  0
 17 18  2  0
 18 19  1  0
 19 20  1  0
 19 21  2  0
 19 22  2  0
  7  2  1  0
 18 11  1  0
  1 23  1  0
  1 24  1  0
  1 25  1  0
  3 26  1  0
  4 27  1  0
  6 28  1  0
  8 29  1  0
  9 30  1  0
  9 31  1  0
 13 32  1  0
 13 33  1  0
 13 34  1  0
 14 35  1  0
 17 36  1  0
 20 37  1  0
 20 38  1  0
M  END
>  <Energy>  (148) 
137.58415872575884

>  <compound_id>  (148) 
3195

>  <target_id>  (148) 
1

>  <reference_id>  (148) 
104

>  <inspiration_ids>  (148) 
[104, 38]

>  <energy_score>  (148) 
118.56670258572743

>  <distance_score>  (148) 
2.336073218280789

>  <path>  (148) 
/opt/xchem-fragalysis-2/maxwin/BulkDock/SCRATCH/505734/C3195-P104/C3195-P104.minimised.mol

>  <scratch_subdir>  (148) 
/opt/xchem-fragalysis-2/maxwin/BulkDock/SCRATCH/505734/C3195-P104

>  <fragmenstein_runtime>  (148) 
5.064826011657715

>  <fragmenstein_outcome>  (148) 
too moved

>  <fragmenstein_mode>  (148) 
expansion

>  <fragmenstein_error>  (148) 


$$$$
C3195-P38
     RDKit          3D

 38 39  0  0  0  0  0  0  0  0999 V2000
  -12.5430  -22.6883   31.0451 C   0  0  0  0  0  0  0  0  0  0  0  0
  -11.6627  -23.8880   31.1244 C   0  0  0  0  0  0  0  0  0  0  0  0
  -11.4796  -24.4269   32.3860 C   0  0  0  0  0  0  0  0  0  0  0  0
  -10.6352  -25.5055   32.5326 C   0  0  0  0  0  0  0  0  0  0  0  0
  -10.0070  -26.1213   31.5304 N   0  0  0  0  0  0  0  0  0  0  0  0
  -10.1770  -25.5846   30.3351 C   0  0  0  0  0  0  0  0  0  0  0  0
  -10.9655  -24.4686   30.0637 C   0  0  0  0  0  0  0  0  0  0  0  0
  -10.8792  -24.0005   28.7816 N   0  0  0  0  0  0  0  0  0  0  0  0
  -11.8462  -23.2042   28.1146 C   0  0  0  0  0  0  0  0  0  0  0  0
  -11.8399  -23.3705   26.6509 O   0  0  0  0  0  0  0  0  0  0  0  0
  -12.5964  -24.4676   26.3171 C   0  0  0  0  0  0  0  0  0  0  0  0
  -12.1488  -25.6768   26.9250 C   0  0  0  0  0  0  0  0  0  0  0  0
  -10.7173  -26.0956   27.0517 C   0  0  0  0  0  0  0  0  0  0  0  0
  -13.0554  -26.6380   27.2824 C   0  0  0  0  0  0  0  0  0  0  0  0
  -14.2568  -26.6126   26.6384 C   0  0  0  0  0  0  0  0  0  0  0  0
  -15.0262  -27.6983   26.7299 F   0  0  0  0  0  0  0  0  0  0  0  0
  -14.5846  -25.6199   25.7255 C   0  0  0  0  0  0  0  0  0  0  0  0
  -13.8337  -24.4385   25.6180 C   0  0  0  0  0  0  0  0  0  0  0  0
  -14.5005  -23.2121   24.4092 S   0  0  0  0  0  0  0  0  0  0  0  0
  -16.0846  -23.8116   24.1500 N   0  0  0  0  0  0  0  0  0  0  0  0
  -13.7770  -23.2565   23.1838 O   0  0  0  0  0  0  0  0  0  0  0  0
  -15.0853  -21.9373   24.7336 O   0  0  0  0  0  0  0  0  0  0  0  0
  -13.4972  -22.9466   30.5787 H   0  0  0  0  0  0  0  0  0  0  0  0
  -12.0494  -21.8847   30.4931 H   0  0  0  0  0  0  0  0  0  0  0  0
  -12.7708  -22.2786   32.0363 H   0  0  0  0  0  0  0  0  0  0  0  0
  -11.9738  -24.0201   33.2640 H   0  0  0  0  0  0  0  0  0  0  0  0
  -10.4528  -25.9324   33.5135 H   0  0  0  0  0  0  0  0  0  0  0  0
   -9.5922  -26.0622   29.5632 H   0  0  0  0  0  0  0  0  0  0  0  0
   -9.9376  -23.8212   28.4522 H   0  0  0  0  0  0  0  0  0  0  0  0
  -11.6274  -22.1452   28.2826 H   0  0  0  0  0  0  0  0  0  0  0  0
  -12.8528  -23.4109   28.4844 H   0  0  0  0  0  0  0  0  0  0  0  0
  -10.0262  -25.2622   27.0639 H   0  0  0  0  0  0  0  0  0  0  0  0
  -10.5625  -26.7304   27.9219 H   0  0  0  0  0  0  0  0  0  0  0  0
  -10.4856  -26.7125   26.1758 H   0  0  0  0  0  0  0  0  0  0  0  0
  -12.7684  -27.5082   27.8636 H   0  0  0  0  0  0  0  0  0  0  0  0
  -15.4396  -25.8546   25.1050 H   0  0  0  0  0  0  0  0  0  0  0  0
  -16.6241  -22.9291   24.2271 H   0  0  0  0  0  0  0  0  0  0  0  0
  -16.4550  -24.3391   24.9395 H   0  0  0  0  0  0  0  0  0  0  0  0
  1  2  1  0
  2  3  2  0
  3  4  1  0
  4  5  2  0
  5  6  1  0
  6  7  2  0
  7  8  1  0
  8  9  1  0
  9 10  1  0
 10 11  1  0
 11 12  2  0
 12 13  1  0
 12 14  1  0
 14 15  2  0
 15 16  1  0
 15 17  1  0
 17 18  2  0
 18 19  1  0
 19 20  1  0
 19 21  2  0
 19 22  2  0
  7  2  1  0
 18 11  1  0
  1 23  1  0
  1 24  1  0
  1 25  1  0
  3 26  1  0
  4 27  1  0
  6 28  1  0
  8 29  1  0
  9 30  1  0
  9 31  1  0
 13 32  1  0
 13 33  1  0
 13 34  1  0
 14 35  1  0
 17 36  1  0
 20 37  1  0
 20 38  1  0
M  END
>  <Energy>  (149) 
44.705263349869611

>  <compound_id>  (149) 
3195

>  <target_id>  (149) 
1

>  <reference_id>  (149) 
38

>  <inspiration_ids>  (149) 
[104, 38]

>  <energy_score>  (149) 
23.667098717112594

>  <distance_score>  (149) 
2.7851228745082093

>  <path>  (149) 
/opt/xchem-fragalysis-2/maxwin/BulkDock/SCRATCH/505734/C3195-P38/C3195-P38.minimised.mol

>  <scratch_subdir>  (149) 
/opt/xchem-fragalysis-2/maxwin/BulkDock/SCRATCH/505734/C3195-P38

>  <fragmenstein_runtime>  (149) 
3.5873472690582275

>  <fragmenstein_outcome>  (149) 
too moved

>  <fragmenstein_mode>  (149) 
expansion

>  <fragmenstein_error>  (149) 


$$$$
C3197-P104
     RDKit          3D

 46 48  0  0  0  0  0  0  0  0999 V2000
  -16.1762  -27.2159   26.2658 C   0  0  0  0  0  0  0  0  0  0  0  0
  -16.2318  -25.8538   25.6523 C   0  0  0  0  0  0  0  0  0  0  0  0
  -15.1875  -25.3820   24.8619 C   0  0  0  0  0  0  0  0  0  0  0  0
  -15.0730  -24.0175   24.5772 C   0  0  0  0  0  0  0  0  0  0  0  0
  -13.9061  -23.5974   24.0321 O   0  0  0  0  0  0  0  0  0  0  0  0
  -13.3894  -22.3047   24.3716 C   0  0  0  0  0  0  0  0  0  0  0  0
  -13.2826  -22.0306   25.8673 C   0  0  0  0  0  0  0  0  0  0  0  0
  -12.0156  -22.2110   26.7044 C   0  0  0  0  0  0  0  0  0  0  0  0
  -11.3355  -23.5507   26.6224 C   0  0  0  0  0  0  0  0  0  0  0  0
  -12.1524  -24.4642   25.7665 C   0  0  0  0  0  0  0  0  0  0  0  0
  -12.9469  -25.2572   26.4895 C   0  0  0  0  0  0  0  0  0  0  0  0
  -11.9506  -26.1211   27.0542 C   0  0  0  0  0  0  0  0  0  0  0  0
  -11.8309  -27.3443   26.4757 C   0  0  0  0  0  0  0  0  0  0  0  0
  -10.5445  -27.7334   26.4315 C   0  0  0  0  0  0  0  0  0  0  0  0
  -10.2644  -28.5844   25.4229 F   0  0  0  0  0  0  0  0  0  0  0  0
   -9.5011  -27.1415   27.2079 C   0  0  0  0  0  0  0  0  0  0  0  0
   -9.7215  -26.0150   27.9538 C   0  0  0  0  0  0  0  0  0  0  0  0
   -8.7098  -25.3308   28.4873 F   0  0  0  0  0  0  0  0  0  0  0  0
  -10.9383  -25.4446   27.7916 C   0  0  0  0  0  0  0  0  0  0  0  0
  -11.0901  -24.0796   27.9520 O   0  0  0  0  0  0  0  0  0  0  0  0
  -16.1231  -23.1707   24.8184 C   0  0  0  0  0  0  0  0  0  0  0  0
  -17.2704  -23.7064   25.3714 C   0  0  0  0  0  0  0  0  0  0  0  0
  -18.7288  -22.7419   25.2424 S   0  0  0  0  0  0  0  0  0  0  0  0
  -18.8941  -22.1561   26.7922 N   0  0  0  0  0  0  0  0  0  0  0  0
  -19.7994  -23.6669   24.9709 O   0  0  0  0  0  0  0  0  0  0  0  0
  -18.4312  -21.6298   24.3706 O   0  0  0  0  0  0  0  0  0  0  0  0
  -17.3224  -25.0165   25.8540 C   0  0  0  0  0  0  0  0  0  0  0  0
  -15.1813  -27.6588   26.1653 H   0  0  0  0  0  0  0  0  0  0  0  0
  -16.9057  -27.8757   25.7872 H   0  0  0  0  0  0  0  0  0  0  0  0
  -16.3986  -27.1568   27.3365 H   0  0  0  0  0  0  0  0  0  0  0  0
  -14.3815  -26.0511   24.5718 H   0  0  0  0  0  0  0  0  0  0  0  0
  -12.4247  -22.1804   23.8724 H   0  0  0  0  0  0  0  0  0  0  0  0
  -14.0685  -21.5765   23.9348 H   0  0  0  0  0  0  0  0  0  0  0  0
  -14.0354  -22.6116   26.3811 H   0  0  0  0  0  0  0  0  0  0  0  0
  -13.5168  -20.9870   25.9376 H   0  0  0  0  0  0  0  0  0  0  0  0
  -11.3314  -21.4280   26.4241 H   0  0  0  0  0  0  0  0  0  0  0  0
  -12.2617  -21.9860   27.7503 H   0  0  0  0  0  0  0  0  0  0  0  0
  -10.3579  -23.5619   26.1681 H   0  0  0  0  0  0  0  0  0  0  0  0
  -11.5796  -24.8573   24.9264 H   0  0  0  0  0  0  0  0  0  0  0  0
  -13.5848  -24.8126   27.2429 H   0  0  0  0  0  0  0  0  0  0  0  0
  -12.5683  -27.7855   25.8166 H   0  0  0  0  0  0  0  0  0  0  0  0
   -8.4772  -27.4744   27.1003 H   0  0  0  0  0  0  0  0  0  0  0  0
  -16.0906  -22.1255   24.5259 H   0  0  0  0  0  0  0  0  0  0  0  0
  -18.3459  -22.6590   27.4825 H   0  0  0  0  0  0  0  0  0  0  0  0
  -18.6173  -21.1590   26.7570 H   0  0  0  0  0  0  0  0  0  0  0  0
  -18.2243  -25.3871   26.3384 H   0  0  0  0  0  0  0  0  0  0  0  0
  1  2  1  0
  2  3  2  0
  3  4  1  0
  4  5  1  0
  5  6  1  0
  6  7  1  0
  7  8  1  0
  8  9  1  0
  9 10  1  0
 10 11  2  0
 11 12  1  0
 12 13  2  0
 13 14  1  0
 14 15  1  0
 14 16  2  0
 16 17  1  0
 17 18  1  0
 17 19  2  0
 19 20  1  0
  4 21  2  0
 21 22  1  0
 22 23  1  0
 23 24  1  0
 23 25  2  0
 23 26  2  0
 22 27  2  0
 27  2  1  0
 20  9  1  0
 19 12  1  0
  1 28  1  0
  1 29  1  0
  1 30  1  0
  3 31  1  0
  6 32  1  0
  6 33  1  0
  7 34  1  0
  7 35  1  0
  8 36  1  0
  8 37  1  0
  9 38  1  0
 10 39  1  0
 11 40  1  0
 13 41  1  0
 16 42  1  0
 21 43  1  0
 24 44  1  0
 24 45  1  0
 27 46  1  0
M  END
>  <Energy>  (150) 
94.530708594405652

>  <compound_id>  (150) 
3197

>  <target_id>  (150) 
1

>  <reference_id>  (150) 
104

>  <inspiration_ids>  (150) 
[104, 45]

>  <energy_score>  (150) 
92.13966154720984

>  <distance_score>  (150) 
5.202072543320019

>  <path>  (150) 
/opt/xchem-fragalysis-2/maxwin/BulkDock/SCRATCH/505734/C3197-P104/C3197-P104.minimised.mol

>  <scratch_subdir>  (150) 
/opt/xchem-fragalysis-2/maxwin/BulkDock/SCRATCH/505734/C3197-P104

>  <fragmenstein_runtime>  (150) 
13.502149820327759

>  <fragmenstein_outcome>  (150) 
too moved

>  <fragmenstein_mode>  (150) 
expansion

>  <fragmenstein_error>  (150) 


$$$$
C3197-P45
     RDKit          3D

 46 48  0  0  0  0  0  0  0  0999 V2000
  -11.5962  -21.7460   29.4630 C   0  0  0  0  0  0  0  0  0  0  0  0
  -11.8534  -22.9726   28.6820 C   0  0  0  0  0  0  0  0  0  0  0  0
  -12.1115  -24.1350   29.3749 C   0  0  0  0  0  0  0  0  0  0  0  0
  -12.2255  -25.3502   28.7188 C   0  0  0  0  0  0  0  0  0  0  0  0
  -12.2340  -26.5028   29.4165 O   0  0  0  0  0  0  0  0  0  0  0  0
  -11.0966  -27.3026   29.1347 C   0  0  0  0  0  0  0  0  0  0  0  0
   -9.7454  -26.7747   29.6464 C   0  0  0  0  0  0  0  0  0  0  0  0
   -9.1815  -25.3474   29.3883 C   0  0  0  0  0  0  0  0  0  0  0  0
   -8.6583  -24.8593   28.0069 C   0  0  0  0  0  0  0  0  0  0  0  0
   -9.4577  -25.3731   26.8830 C   0  0  0  0  0  0  0  0  0  0  0  0
   -9.4242  -26.6683   26.5905 C   0  0  0  0  0  0  0  0  0  0  0  0
   -8.1069  -27.2343   26.8194 C   0  0  0  0  0  0  0  0  0  0  0  0
   -7.8444  -28.4895   26.3187 C   0  0  0  0  0  0  0  0  0  0  0  0
   -6.5274  -28.8001   26.0710 C   0  0  0  0  0  0  0  0  0  0  0  0
   -6.3039  -29.8786   25.3230 F   0  0  0  0  0  0  0  0  0  0  0  0
   -5.4680  -27.9644   26.4246 C   0  0  0  0  0  0  0  0  0  0  0  0
   -5.7414  -26.7446   26.9911 C   0  0  0  0  0  0  0  0  0  0  0  0
   -4.7410  -25.9145   27.3130 F   0  0  0  0  0  0  0  0  0  0  0  0
   -7.0575  -26.3746   27.1986 C   0  0  0  0  0  0  0  0  0  0  0  0
   -7.2806  -25.1445   27.7684 O   0  0  0  0  0  0  0  0  0  0  0  0
  -12.3362  -25.3811   27.3605 C   0  0  0  0  0  0  0  0  0  0  0  0
  -12.2354  -24.1800   26.6685 C   0  0  0  0  0  0  0  0  0  0  0  0
  -12.5102  -24.2509   24.9591 S   0  0  0  0  0  0  0  0  0  0  0  0
  -13.9241  -23.3875   24.6983 N   0  0  0  0  0  0  0  0  0  0  0  0
  -12.8250  -25.6383   24.6715 O   0  0  0  0  0  0  0  0  0  0  0  0
  -11.4488  -23.5575   24.2937 O   0  0  0  0  0  0  0  0  0  0  0  0
  -11.8723  -23.0012   27.3042 C   0  0  0  0  0  0  0  0  0  0  0  0
  -10.5866  -21.4059   29.2678 H   0  0  0  0  0  0  0  0  0  0  0  0
  -11.6892  -21.8969   30.5437 H   0  0  0  0  0  0  0  0  0  0  0  0
  -12.3197  -20.9871   29.1792 H   0  0  0  0  0  0  0  0  0  0  0  0
  -12.1877  -24.0217   30.4452 H   0  0  0  0  0  0  0  0  0  0  0  0
  -11.2902  -28.2402   29.6702 H   0  0  0  0  0  0  0  0  0  0  0  0
  -11.0834  -27.6174   28.0906 H   0  0  0  0  0  0  0  0  0  0  0  0
   -9.7877  -26.8710   30.7408 H   0  0  0  0  0  0  0  0  0  0  0  0
   -9.0141  -27.5025   29.3039 H   0  0  0  0  0  0  0  0  0  0  0  0
   -8.3636  -25.2008   30.0928 H   0  0  0  0  0  0  0  0  0  0  0  0
   -9.9139  -24.6471   29.7600 H   0  0  0  0  0  0  0  0  0  0  0  0
   -8.7179  -23.7660   28.0084 H   0  0  0  0  0  0  0  0  0  0  0  0
  -10.0452  -24.6863   26.3162 H   0  0  0  0  0  0  0  0  0  0  0  0
  -10.1161  -27.1478   25.9074 H   0  0  0  0  0  0  0  0  0  0  0  0
   -8.6196  -29.1498   25.9445 H   0  0  0  0  0  0  0  0  0  0  0  0
   -4.4431  -28.2030   26.1846 H   0  0  0  0  0  0  0  0  0  0  0  0
  -12.5020  -26.3283   26.8556 H   0  0  0  0  0  0  0  0  0  0  0  0
  -14.6682  -23.7520   25.2964 H   0  0  0  0  0  0  0  0  0  0  0  0
  -13.7455  -22.3947   24.9321 H   0  0  0  0  0  0  0  0  0  0  0  0
  -11.6584  -22.1023   26.7392 H   0  0  0  0  0  0  0  0  0  0  0  0
  1  2  1  0
  2  3  2  0
  3  4  1  0
  4  5  1  0
  5  6  1  0
  6  7  1  0
  7  8  1  0
  8  9  1  0
  9 10  1  0
 10 11  2  0
 11 12  1  0
 12 13  2  0
 13 14  1  0
 14 15  1  0
 14 16  2  0
 16 17  1  0
 17 18  1  0
 17 19  2  0
 19 20  1  0
  4 21  2  0
 21 22  1  0
 22 23  1  0
 23 24  1  0
 23 25  2  0
 23 26  2  0
 22 27  2  0
 27  2  1  0
 20  9  1  0
 19 12  1  0
  1 28  1  0
  1 29  1  0
  1 30  1  0
  3 31  1  0
  6 32  1  0
  6 33  1  0
  7 34  1  0
  7 35  1  0
  8 36  1  0
  8 37  1  0
  9 38  1  0
 10 39  1  0
 11 40  1  0
 13 41  1  0
 16 42  1  0
 21 43  1  0
 24 44  1  0
 24 45  1  0
 27 46  1  0
M  END
>  <Energy>  (151) 
37.209632610635367

>  <compound_id>  (151) 
3197

>  <target_id>  (151) 
1

>  <reference_id>  (151) 
45

>  <inspiration_ids>  (151) 
[104, 45]

>  <energy_score>  (151) 
34.818585563436955

>  <distance_score>  (151) 
2.30667242732407

>  <path>  (151) 
/opt/xchem-fragalysis-2/maxwin/BulkDock/SCRATCH/505734/C3197-P45/C3197-P45.minimised.mol

>  <scratch_subdir>  (151) 
/opt/xchem-fragalysis-2/maxwin/BulkDock/SCRATCH/505734/C3197-P45

>  <fragmenstein_runtime>  (151) 
10.55199909210205

>  <fragmenstein_outcome>  (151) 
too moved

>  <fragmenstein_mode>  (151) 
expansion

>  <fragmenstein_error>  (151) 


$$$$
C3200-P104
     RDKit          3D

 25 25  0  0  0  0  0  0  0  0999 V2000
  -13.6913  -26.1270   24.5031 N   0  0  0  0  0  0  0  0  0  0  0  0
  -12.7929  -25.6596   25.4672 C   0  0  0  0  0  0  0  0  0  0  0  0
  -11.9826  -26.6025   26.1378 C   0  0  0  0  0  0  0  0  0  0  0  0
  -12.1156  -27.9031   25.8375 F   0  0  0  0  0  0  0  0  0  0  0  0
  -11.1227  -26.2515   27.1771 C   0  0  0  0  0  0  0  0  0  0  0  0
  -11.0227  -24.9161   27.5327 C   0  0  0  0  0  0  0  0  0  0  0  0
  -10.3718  -24.4363   28.8000 C   0  0  0  0  0  0  0  0  0  0  0  0
  -11.1205  -23.1873   29.3837 C   0  0  0  0  0  0  0  0  0  0  0  0
  -10.6231  -22.0429   28.8350 F   0  0  0  0  0  0  0  0  0  0  0  0
  -10.9690  -23.0722   30.7300 F   0  0  0  0  0  0  0  0  0  0  0  0
  -11.6019  -23.9672   26.7040 C   0  0  0  0  0  0  0  0  0  0  0  0
  -12.5193  -24.3168   25.7202 C   0  0  0  0  0  0  0  0  0  0  0  0
  -13.3903  -22.9254   25.0710 S   0  0  0  0  0  0  0  0  0  0  0  0
  -15.0122  -23.4170   25.0515 N   0  0  0  0  0  0  0  0  0  0  0  0
  -12.9774  -22.6456   23.7248 O   0  0  0  0  0  0  0  0  0  0  0  0
  -13.3485  -21.9131   26.1008 O   0  0  0  0  0  0  0  0  0  0  0  0
  -14.4473  -25.5156   24.2028 H   0  0  0  0  0  0  0  0  0  0  0  0
  -13.9164  -27.1192   24.5910 H   0  0  0  0  0  0  0  0  0  0  0  0
  -10.6125  -27.0273   27.7419 H   0  0  0  0  0  0  0  0  0  0  0  0
   -9.3459  -24.1969   28.5134 H   0  0  0  0  0  0  0  0  0  0  0  0
  -10.3321  -25.2341   29.5466 H   0  0  0  0  0  0  0  0  0  0  0  0
  -12.1675  -23.1359   29.1336 H   0  0  0  0  0  0  0  0  0  0  0  0
  -11.4080  -22.9089   26.8849 H   0  0  0  0  0  0  0  0  0  0  0  0
  -15.5648  -22.5890   25.3108 H   0  0  0  0  0  0  0  0  0  0  0  0
  -15.1792  -24.1372   25.7574 H   0  0  0  0  0  0  0  0  0  0  0  0
  1  2  1  0
  2  3  2  0
  3  4  1  0
  3  5  1  0
  5  6  2  0
  6  7  1  0
  7  8  1  0
  8  9  1  0
  8 10  1  0
  6 11  1  0
 11 12  2  0
 12 13  1  0
 13 14  1  0
 13 15  2  0
 13 16  2  0
 12  2  1  0
  1 17  1  0
  1 18  1  0
  5 19  1  0
  7 20  1  0
  7 21  1  0
  8 22  1  0
 11 23  1  0
 14 24  1  0
 14 25  1  0
M  END
>  <Energy>  (152) 
3.2779457924618693

>  <compound_id>  (152) 
3200

>  <target_id>  (152) 
1

>  <reference_id>  (152) 
104

>  <inspiration_ids>  (152) 
[104, 54]

>  <energy_score>  (152) 
-18.44366319537224

>  <distance_score>  (152) 
0.9169924894202265

>  <path>  (152) 
/opt/xchem-fragalysis-2/maxwin/BulkDock/SCRATCH/505734/C3200-P104/C3200-P104.minimised.mol

>  <scratch_subdir>  (152) 
/opt/xchem-fragalysis-2/maxwin/BulkDock/SCRATCH/505734/C3200-P104

>  <fragmenstein_runtime>  (152) 
1.673253059387207

>  <fragmenstein_outcome>  (152) 
acceptable

>  <fragmenstein_mode>  (152) 
expansion

>  <fragmenstein_error>  (152) 


$$$$
C3200-P54
     RDKit          3D

 25 25  0  0  0  0  0  0  0  0999 V2000
  -13.5173  -25.8643   25.3329 N   0  0  0  0  0  0  0  0  0  0  0  0
  -12.5720  -25.6089   26.3355 C   0  0  0  0  0  0  0  0  0  0  0  0
  -12.1147  -26.6791   27.1146 C   0  0  0  0  0  0  0  0  0  0  0  0
  -12.5422  -27.9179   26.8224 F   0  0  0  0  0  0  0  0  0  0  0  0
  -11.3103  -26.4833   28.2428 C   0  0  0  0  0  0  0  0  0  0  0  0
  -10.8074  -25.2122   28.5170 C   0  0  0  0  0  0  0  0  0  0  0  0
  -10.1680  -24.7891   29.8169 C   0  0  0  0  0  0  0  0  0  0  0  0
  -10.7258  -23.4892   30.4104 C   0  0  0  0  0  0  0  0  0  0  0  0
  -10.2782  -22.4118   29.7236 F   0  0  0  0  0  0  0  0  0  0  0  0
  -10.2613  -23.3544   31.6797 F   0  0  0  0  0  0  0  0  0  0  0  0
  -10.9523  -24.2512   27.5391 C   0  0  0  0  0  0  0  0  0  0  0  0
  -11.9021  -24.4017   26.5216 C   0  0  0  0  0  0  0  0  0  0  0  0
  -12.4021  -22.8287   25.8928 S   0  0  0  0  0  0  0  0  0  0  0  0
  -14.0715  -22.9844   25.6090 N   0  0  0  0  0  0  0  0  0  0  0  0
  -11.7699  -22.5337   24.6368 O   0  0  0  0  0  0  0  0  0  0  0  0
  -12.2502  -21.9906   27.0591 O   0  0  0  0  0  0  0  0  0  0  0  0
  -13.9722  -25.0401   24.9268 H   0  0  0  0  0  0  0  0  0  0  0  0
  -14.1711  -26.6106   25.5595 H   0  0  0  0  0  0  0  0  0  0  0  0
  -11.1276  -27.3246   28.9050 H   0  0  0  0  0  0  0  0  0  0  0  0
   -9.0924  -24.6558   29.6616 H   0  0  0  0  0  0  0  0  0  0  0  0
  -10.3300  -25.5692   30.5662 H   0  0  0  0  0  0  0  0  0  0  0  0
  -11.8162  -23.4649   30.4269 H   0  0  0  0  0  0  0  0  0  0  0  0
  -10.4429  -23.2913   27.6579 H   0  0  0  0  0  0  0  0  0  0  0  0
  -14.3554  -22.0036   25.4539 H   0  0  0  0  0  0  0  0  0  0  0  0
  -14.5332  -23.3388   26.4467 H   0  0  0  0  0  0  0  0  0  0  0  0
  1  2  1  0
  2  3  2  0
  3  4  1  0
  3  5  1  0
  5  6  2  0
  6  7  1  0
  7  8  1  0
  8  9  1  0
  8 10  1  0
  6 11  1  0
 11 12  2  0
 12 13  1  0
 13 14  1  0
 13 15  2  0
 13 16  2  0
 12  2  1  0
  1 17  1  0
  1 18  1  0
  5 19  1  0
  7 20  1  0
  7 21  1  0
  8 22  1  0
 11 23  1  0
 14 24  1  0
 14 25  1  0
M  END
>  <Energy>  (153) 
8.1039141747760031

>  <compound_id>  (153) 
3200

>  <target_id>  (153) 
1

>  <reference_id>  (153) 
54

>  <inspiration_ids>  (153) 
[104, 54]

>  <energy_score>  (153) 
-13.617694813057298

>  <distance_score>  (153) 
0.8915084262572534

>  <path>  (153) 
/opt/xchem-fragalysis-2/maxwin/BulkDock/SCRATCH/505734/C3200-P54/C3200-P54.minimised.mol

>  <scratch_subdir>  (153) 
/opt/xchem-fragalysis-2/maxwin/BulkDock/SCRATCH/505734/C3200-P54

>  <fragmenstein_runtime>  (153) 
1.5070767402648926

>  <fragmenstein_outcome>  (153) 
acceptable

>  <fragmenstein_mode>  (153) 
expansion

>  <fragmenstein_error>  (153) 


$$$$
C3201-P104
     RDKit          3D

 27 28  0  0  0  0  0  0  0  0999 V2000
  -14.7595  -23.4670   24.9393 N   0  0  0  0  0  0  0  0  0  0  0  0
  -13.1817  -22.9271   25.1072 S   0  0  0  0  0  0  0  0  0  0  0  0
  -12.7276  -22.6067   23.7810 O   0  0  0  0  0  0  0  0  0  0  0  0
  -13.2102  -21.9566   26.1722 O   0  0  0  0  0  0  0  0  0  0  0  0
  -12.3415  -24.3541   25.6970 C   0  0  0  0  0  0  0  0  0  0  0  0
  -12.6622  -25.6615   25.3720 C   0  0  0  0  0  0  0  0  0  0  0  0
  -12.0182  -26.6820   26.0681 C   0  0  0  0  0  0  0  0  0  0  0  0
  -12.2448  -27.9534   25.7226 F   0  0  0  0  0  0  0  0  0  0  0  0
  -11.1979  -26.4138   27.1649 C   0  0  0  0  0  0  0  0  0  0  0  0
  -10.9989  -25.0942   27.5581 C   0  0  0  0  0  0  0  0  0  0  0  0
  -10.3592  -24.6946   28.8578 C   0  0  0  0  0  0  0  0  0  0  0  0
  -10.9796  -23.4769   29.5471 C   0  0  0  0  0  0  0  0  0  0  0  0
  -11.3090  -22.1819   29.1834 C   0  0  0  0  0  0  0  0  0  0  0  0
  -11.5337  -21.3866   30.2790 N   0  0  0  0  0  0  0  0  0  0  0  0
  -11.4881  -22.1882   31.3136 C   0  0  0  0  0  0  0  0  0  0  0  0
  -11.0943  -23.4317   30.9394 N   0  0  0  0  0  0  0  0  0  0  0  0
  -11.4386  -24.0993   26.7067 C   0  0  0  0  0  0  0  0  0  0  0  0
  -14.9936  -23.3490   23.9601 H   0  0  0  0  0  0  0  0  0  0  0  0
  -15.3678  -22.9320   25.5626 H   0  0  0  0  0  0  0  0  0  0  0  0
  -13.3906  -25.9032   24.6093 H   0  0  0  0  0  0  0  0  0  0  0  0
  -10.7897  -27.2361   27.7456 H   0  0  0  0  0  0  0  0  0  0  0  0
   -9.3150  -24.4753   28.6139 H   0  0  0  0  0  0  0  0  0  0  0  0
  -10.3225  -25.5444   29.5473 H   0  0  0  0  0  0  0  0  0  0  0  0
  -11.3152  -21.7128   28.2145 H   0  0  0  0  0  0  0  0  0  0  0  0
  -11.7169  -21.9305   32.3376 H   0  0  0  0  0  0  0  0  0  0  0  0
  -11.0703  -24.2483   31.5316 H   0  0  0  0  0  0  0  0  0  0  0  0
  -11.1586  -23.0741   26.8813 H   0  0  0  0  0  0  0  0  0  0  0  0
  1  2  1  0
  2  3  2  0
  2  4  2  0
  2  5  1  0
  5  6  2  0
  6  7  1  0
  7  8  1  0
  7  9  2  0
  9 10  1  0
 10 11  1  0
 11 12  1  0
 12 13  2  0
 13 14  1  0
 14 15  2  0
 15 16  1  0
 10 17  2  0
 17  5  1  0
 16 12  1  0
  1 18  1  0
  1 19  1  0
  6 20  1  0
  9 21  1  0
 11 22  1  0
 11 23  1  0
 13 24  1  0
 15 25  1  0
 16 26  1  0
 17 27  1  0
M  END
>  <Energy>  (154) 
-47.122787191679585

>  <compound_id>  (154) 
3201

>  <target_id>  (154) 
1

>  <reference_id>  (154) 
104

>  <inspiration_ids>  (154) 
[104, 62]

>  <energy_score>  (154) 
-9.397880200683758

>  <distance_score>  (154) 
1.081673698914174

>  <path>  (154) 
/opt/xchem-fragalysis-2/maxwin/BulkDock/SCRATCH/505734/C3201-P104/C3201-P104.minimised.mol

>  <scratch_subdir>  (154) 
/opt/xchem-fragalysis-2/maxwin/BulkDock/SCRATCH/505734/C3201-P104

>  <fragmenstein_runtime>  (154) 
1.6789722442626953

>  <fragmenstein_outcome>  (154) 
too moved

>  <fragmenstein_mode>  (154) 
expansion

>  <fragmenstein_error>  (154) 


$$$$
C3201-P62
     RDKit          3D

 27 28  0  0  0  0  0  0  0  0999 V2000
  -13.6087  -23.8496   26.1214 N   0  0  0  0  0  0  0  0  0  0  0  0
  -11.9514  -23.7276   26.4310 S   0  0  0  0  0  0  0  0  0  0  0  0
  -11.2709  -23.9070   25.1832 O   0  0  0  0  0  0  0  0  0  0  0  0
  -11.7510  -22.5686   27.2683 O   0  0  0  0  0  0  0  0  0  0  0  0
  -11.5147  -25.0226   27.5094 C   0  0  0  0  0  0  0  0  0  0  0  0
  -12.2176  -26.1933   27.5200 C   0  0  0  0  0  0  0  0  0  0  0  0
  -11.9225  -27.1455   28.4538 C   0  0  0  0  0  0  0  0  0  0  0  0
  -12.5790  -28.2930   28.4387 F   0  0  0  0  0  0  0  0  0  0  0  0
  -11.1203  -26.8840   29.5260 C   0  0  0  0  0  0  0  0  0  0  0  0
  -10.5899  -25.6187   29.6273 C   0  0  0  0  0  0  0  0  0  0  0  0
  -10.4414  -25.0702   31.0118 C   0  0  0  0  0  0  0  0  0  0  0  0
  -11.4641  -24.0047   31.2306 C   0  0  0  0  0  0  0  0  0  0  0  0
  -12.6879  -23.6988   30.6674 C   0  0  0  0  0  0  0  0  0  0  0  0
  -13.1842  -22.5233   31.1700 N   0  0  0  0  0  0  0  0  0  0  0  0
  -12.3369  -22.1760   32.1031 C   0  0  0  0  0  0  0  0  0  0  0  0
  -11.2660  -23.0083   32.1299 N   0  0  0  0  0  0  0  0  0  0  0  0
  -10.6188  -24.7560   28.5300 C   0  0  0  0  0  0  0  0  0  0  0  0
  -13.9049  -22.8596   26.1572 H   0  0  0  0  0  0  0  0  0  0  0  0
  -14.0845  -24.4069   26.8182 H   0  0  0  0  0  0  0  0  0  0  0  0
  -13.0033  -26.3649   26.8253 H   0  0  0  0  0  0  0  0  0  0  0  0
  -11.0944  -27.5838   30.3554 H   0  0  0  0  0  0  0  0  0  0  0  0
   -9.4236  -24.7018   31.1546 H   0  0  0  0  0  0  0  0  0  0  0  0
  -10.5807  -25.8512   31.7707 H   0  0  0  0  0  0  0  0  0  0  0  0
  -13.2368  -24.2525   29.9206 H   0  0  0  0  0  0  0  0  0  0  0  0
  -12.4325  -21.3354   32.7751 H   0  0  0  0  0  0  0  0  0  0  0  0
  -10.4467  -22.9138   32.7015 H   0  0  0  0  0  0  0  0  0  0  0  0
  -10.1709  -23.7701   28.5848 H   0  0  0  0  0  0  0  0  0  0  0  0
  1  2  1  0
  2  3  2  0
  2  4  2  0
  2  5  1  0
  5  6  2  0
  6  7  1  0
  7  8  1  0
  7  9  2  0
  9 10  1  0
 10 11  1  0
 11 12  1  0
 12 13  2  0
 13 14  1  0
 14 15  2  0
 15 16  1  0
 10 17  2  0
 17  5  1  0
 16 12  1  0
  1 18  1  0
  1 19  1  0
  6 20  1  0
  9 21  1  0
 11 22  1  0
 11 23  1  0
 13 24  1  0
 15 25  1  0
 16 26  1  0
 17 27  1  0
M  END
>  <Energy>  (155) 
-35.387167422347183

>  <compound_id>  (155) 
3201

>  <target_id>  (155) 
1

>  <reference_id>  (155) 
62

>  <inspiration_ids>  (155) 
[104, 62]

>  <energy_score>  (155) 
2.3377395686500186

>  <distance_score>  (155) 
1.811152797546484

>  <path>  (155) 
/opt/xchem-fragalysis-2/maxwin/BulkDock/SCRATCH/505734/C3201-P62/C3201-P62.minimised.mol

>  <scratch_subdir>  (155) 
/opt/xchem-fragalysis-2/maxwin/BulkDock/SCRATCH/505734/C3201-P62

>  <fragmenstein_runtime>  (155) 
1.8915894031524658

>  <fragmenstein_outcome>  (155) 
too moved

>  <fragmenstein_mode>  (155) 
expansion

>  <fragmenstein_error>  (155) 


$$$$
C3204-P104
     RDKit          3D

 60 62  0  0  0  0  0  0  0  0999 V2000
  -12.7414  -21.2492   24.5561 C   0  0  0  0  0  0  0  0  0  0  0  0
  -12.9194  -22.5237   25.2465 C   0  0  0  0  0  0  0  0  0  0  0  0
  -12.2220  -22.8046   26.4013 C   0  0  0  0  0  0  0  0  0  0  0  0
  -12.3926  -24.0244   26.9986 C   0  0  0  0  0  0  0  0  0  0  0  0
  -11.9345  -24.3192   28.2260 O   0  0  0  0  0  0  0  0  0  0  0  0
  -11.1208  -23.3894   28.9589 C   0  0  0  0  0  0  0  0  0  0  0  0
  -11.6849  -22.0573   29.5287 C   0  0  0  0  0  0  0  0  0  0  0  0
  -11.9747  -21.7341   30.9696 N   0  0  0  0  0  0  0  0  0  0  0  0
  -12.6015  -22.3750   32.2452 S   0  0  0  0  0  0  0  0  0  0  0  0
  -12.6105  -21.6069   33.4775 O   0  0  0  0  0  0  0  0  0  0  0  0
  -11.6662  -23.7589   32.5540 C   0  0  0  0  0  0  0  0  0  0  0  0
  -11.7346  -24.5831   33.7649 C   0  0  0  0  0  0  0  0  0  0  0  0
  -10.3866  -25.2951   33.7260 C   0  0  0  0  0  0  0  0  0  0  0  0
   -9.5658  -24.4957   32.8587 N   0  0  0  0  0  0  0  0  0  0  0  0
   -8.8082  -24.9160   31.7479 C   0  0  0  0  0  0  0  0  0  0  0  0
   -8.9890  -26.1606   31.1604 C   0  0  0  0  0  0  0  0  0  0  0  0
   -9.7103  -26.5885   30.0873 C   0  0  0  0  0  0  0  0  0  0  0  0
   -9.4483  -27.8961   29.9111 O   0  0  0  0  0  0  0  0  0  0  0  0
   -8.5170  -28.3222   30.8695 N   0  0  0  0  0  0  0  0  0  0  0  0
   -8.1110  -27.1849   31.4110 C   0  0  0  0  0  0  0  0  0  0  0  0
   -6.5704  -27.0501   33.1864 Br  0  0  0  0  0  0  0  0  0  0  0  0
  -10.2836  -23.3467   32.4588 C   0  0  0  0  0  0  0  0  0  0  0  0
  -14.2746  -22.8292   32.1690 N   0  0  0  0  0  0  0  0  0  0  0  0
  -15.2548  -21.7905   32.4825 C   0  0  0  0  0  0  0  0  0  0  0  0
  -14.7299  -24.0349   32.8614 C   0  0  0  0  0  0  0  0  0  0  0  0
  -13.1845  -24.9909   26.3896 C   0  0  0  0  0  0  0  0  0  0  0  0
  -13.9809  -24.6294   25.3209 C   0  0  0  0  0  0  0  0  0  0  0  0
  -15.2670  -25.6402   24.7431 S   0  0  0  0  0  0  0  0  0  0  0  0
  -15.7826  -26.4446   26.1175 N   0  0  0  0  0  0  0  0  0  0  0  0
  -14.6768  -26.6082   23.8556 O   0  0  0  0  0  0  0  0  0  0  0  0
  -16.3607  -24.7801   24.3541 O   0  0  0  0  0  0  0  0  0  0  0  0
  -13.8559  -23.3946   24.7405 C   0  0  0  0  0  0  0  0  0  0  0  0
  -12.5117  -21.4418   23.5041 H   0  0  0  0  0  0  0  0  0  0  0  0
  -11.9236  -20.6734   24.9558 H   0  0  0  0  0  0  0  0  0  0  0  0
  -13.6635  -20.6883   24.6961 H   0  0  0  0  0  0  0  0  0  0  0  0
  -11.5767  -22.0401   26.8131 H   0  0  0  0  0  0  0  0  0  0  0  0
  -10.7333  -23.9885   29.7670 H   0  0  0  0  0  0  0  0  0  0  0  0
  -10.2698  -23.1666   28.3014 H   0  0  0  0  0  0  0  0  0  0  0  0
  -10.8436  -21.3732   29.3613 H   0  0  0  0  0  0  0  0  0  0  0  0
  -12.4213  -21.6277   28.8543 H   0  0  0  0  0  0  0  0  0  0  0  0
  -11.7195  -24.4229   31.7477 H   0  0  0  0  0  0  0  0  0  0  0  0
  -12.5556  -25.2998   33.7775 H   0  0  0  0  0  0  0  0  0  0  0  0
  -11.8392  -23.8832   34.5826 H   0  0  0  0  0  0  0  0  0  0  0  0
  -10.5122  -26.3024   33.3884 H   0  0  0  0  0  0  0  0  0  0  0  0
   -9.9446  -25.3481   34.7179 H   0  0  0  0  0  0  0  0  0  0  0  0
   -7.7667  -24.7548   31.9395 H   0  0  0  0  0  0  0  0  0  0  0  0
   -9.0368  -24.3618   30.8705 H   0  0  0  0  0  0  0  0  0  0  0  0
  -10.3908  -26.1525   29.3793 H   0  0  0  0  0  0  0  0  0  0  0  0
   -9.9747  -22.5118   33.0037 H   0  0  0  0  0  0  0  0  0  0  0  0
  -10.1416  -23.0018   31.4636 H   0  0  0  0  0  0  0  0  0  0  0  0
  -15.0630  -20.8590   31.9515 H   0  0  0  0  0  0  0  0  0  0  0  0
  -15.2747  -21.5594   33.5540 H   0  0  0  0  0  0  0  0  0  0  0  0
  -16.2637  -22.0955   32.1797 H   0  0  0  0  0  0  0  0  0  0  0  0
  -14.2199  -24.9275   32.5023 H   0  0  0  0  0  0  0  0  0  0  0  0
  -14.5890  -23.9542   33.9439 H   0  0  0  0  0  0  0  0  0  0  0  0
  -15.7930  -24.2280   32.6718 H   0  0  0  0  0  0  0  0  0  0  0  0
  -13.2340  -25.9995   26.7668 H   0  0  0  0  0  0  0  0  0  0  0  0
  -16.7300  -26.1446   26.3593 H   0  0  0  0  0  0  0  0  0  0  0  0
  -15.6837  -27.4516   25.9968 H   0  0  0  0  0  0  0  0  0  0  0  0
  -14.4608  -23.1078   23.8861 H   0  0  0  0  0  0  0  0  0  0  0  0
  1  2  1  0
  2  3  2  0
  3  4  1  0
  4  5  1  0
  5  6  1  0
  6  7  1  0
  7  8  1  0
  8  9  2  0
  9 10  2  0
  9 11  1  0
 11 12  1  0
 12 13  1  0
 13 14  1  0
 14 15  1  0
 15 16  1  0
 16 17  2  0
 17 18  1  0
 18 19  1  0
 19 20  2  0
 20 21  1  0
 14 22  1  0
  9 23  1  0
 23 24  1  0
 23 25  1  0
  4 26  2  0
 26 27  1  0
 27 28  1  0
 28 29  1  0
 28 30  2  0
 28 31  2  0
 27 32  2  0
 32  2  1  0
 22 11  1  0
 20 16  1  0
  1 33  1  0
  1 34  1  0
  1 35  1  0
  3 36  1  0
  6 37  1  0
  6 38  1  0
  7 39  1  0
  7 40  1  0
 11 41  1  0
 12 42  1  0
 12 43  1  0
 13 44  1  0
 13 45  1  0
 15 46  1  0
 15 47  1  0
 17 48  1  0
 22 49  1  0
 22 50  1  0
 24 51  1  0
 24 52  1  0
 24 53  1  0
 25 54  1  0
 25 55  1  0
 25 56  1  0
 26 57  1  0
 29 58  1  0
 29 59  1  0
 32 60  1  0
M  END
>  <Energy>  (156) 
17.583106949624444

>  <compound_id>  (156) 
3204

>  <target_id>  (156) 
1

>  <reference_id>  (156) 
104

>  <inspiration_ids>  (156) 
[104, 82]

>  <energy_score>  (156) 
54.66006537123553

>  <distance_score>  (156) 
3.9690206772131664

>  <path>  (156) 
/opt/xchem-fragalysis-2/maxwin/BulkDock/SCRATCH/505734/C3204-P104/C3204-P104.minimised.mol

>  <scratch_subdir>  (156) 
/opt/xchem-fragalysis-2/maxwin/BulkDock/SCRATCH/505734/C3204-P104

>  <fragmenstein_runtime>  (156) 
10.734558343887329

>  <fragmenstein_outcome>  (156) 
too moved

>  <fragmenstein_mode>  (156) 
expansion

>  <fragmenstein_error>  (156) 


$$$$
C3204-P82
     RDKit          3D

 60 62  0  0  0  0  0  0  0  0999 V2000
   -9.8713  -26.3481   27.1440 C   0  0  0  0  0  0  0  0  0  0  0  0
  -10.8054  -26.5396   25.9680 C   0  0  0  0  0  0  0  0  0  0  0  0
  -11.3879  -27.7434   25.6649 C   0  0  0  0  0  0  0  0  0  0  0  0
  -12.7609  -27.6684   25.4633 C   0  0  0  0  0  0  0  0  0  0  0  0
  -13.4267  -28.5937   26.2296 O   0  0  0  0  0  0  0  0  0  0  0  0
  -13.7662  -27.9154   27.4715 C   0  0  0  0  0  0  0  0  0  0  0  0
  -12.6957  -26.9238   28.2387 C   0  0  0  0  0  0  0  0  0  0  0  0
  -13.0461  -25.4381   28.3320 N   0  0  0  0  0  0  0  0  0  0  0  0
  -12.1996  -24.3990   29.1984 S   0  0  0  0  0  0  0  0  0  0  0  0
  -10.7601  -24.4722   29.1227 O   0  0  0  0  0  0  0  0  0  0  0  0
  -12.5657  -24.2483   30.9207 C   0  0  0  0  0  0  0  0  0  0  0  0
  -13.6157  -23.5336   31.7707 C   0  0  0  0  0  0  0  0  0  0  0  0
  -12.9647  -23.4837   33.1910 C   0  0  0  0  0  0  0  0  0  0  0  0
  -11.5593  -23.9514   33.0312 N   0  0  0  0  0  0  0  0  0  0  0  0
  -11.4431  -25.4326   33.2302 C   0  0  0  0  0  0  0  0  0  0  0  0
  -10.7609  -26.2101   32.1195 C   0  0  0  0  0  0  0  0  0  0  0  0
  -10.6732  -27.4780   31.5717 C   0  0  0  0  0  0  0  0  0  0  0  0
  -10.1855  -27.4060   30.3249 O   0  0  0  0  0  0  0  0  0  0  0  0
   -9.4948  -26.2514   30.2650 N   0  0  0  0  0  0  0  0  0  0  0  0
   -9.6402  -25.7900   31.4787 C   0  0  0  0  0  0  0  0  0  0  0  0
   -8.3901  -25.2490   32.6221 Br  0  0  0  0  0  0  0  0  0  0  0  0
  -11.3946  -23.5880   31.6359 C   0  0  0  0  0  0  0  0  0  0  0  0
  -12.3296  -22.8193   28.5528 N   0  0  0  0  0  0  0  0  0  0  0  0
  -11.4067  -22.5328   27.4917 C   0  0  0  0  0  0  0  0  0  0  0  0
  -12.1296  -21.6789   29.4170 C   0  0  0  0  0  0  0  0  0  0  0  0
  -13.4453  -26.5060   25.1164 C   0  0  0  0  0  0  0  0  0  0  0  0
  -12.6979  -25.3545   25.1743 C   0  0  0  0  0  0  0  0  0  0  0  0
  -13.3307  -23.7535   24.9813 S   0  0  0  0  0  0  0  0  0  0  0  0
  -14.7020  -23.8578   24.0379 N   0  0  0  0  0  0  0  0  0  0  0  0
  -12.4208  -22.9519   24.2001 O   0  0  0  0  0  0  0  0  0  0  0  0
  -13.7697  -23.4418   26.2932 O   0  0  0  0  0  0  0  0  0  0  0  0
  -11.3568  -25.3824   25.4752 C   0  0  0  0  0  0  0  0  0  0  0  0
   -8.9816  -26.9556   27.0543 H   0  0  0  0  0  0  0  0  0  0  0  0
   -9.6691  -25.2874   27.2646 H   0  0  0  0  0  0  0  0  0  0  0  0
  -10.2497  -26.5947   28.1142 H   0  0  0  0  0  0  0  0  0  0  0  0
  -10.9547  -28.6646   26.0380 H   0  0  0  0  0  0  0  0  0  0  0  0
  -14.7174  -27.4127   27.2652 H   0  0  0  0  0  0  0  0  0  0  0  0
  -13.9719  -28.7579   28.1412 H   0  0  0  0  0  0  0  0  0  0  0  0
  -11.7944  -27.1492   27.7830 H   0  0  0  0  0  0  0  0  0  0  0  0
  -12.4142  -27.2863   29.2283 H   0  0  0  0  0  0  0  0  0  0  0  0
  -12.6535  -25.3000   31.1421 H   0  0  0  0  0  0  0  0  0  0  0  0
  -14.5618  -24.0161   31.9185 H   0  0  0  0  0  0  0  0  0  0  0  0
  -13.8853  -22.5275   31.4557 H   0  0  0  0  0  0  0  0  0  0  0  0
  -13.5383  -24.0551   33.9279 H   0  0  0  0  0  0  0  0  0  0  0  0
  -12.9539  -22.4410   33.5316 H   0  0  0  0  0  0  0  0  0  0  0  0
  -12.4767  -25.7177   33.2569 H   0  0  0  0  0  0  0  0  0  0  0  0
  -10.9814  -25.6336   34.2009 H   0  0  0  0  0  0  0  0  0  0  0  0
  -10.9631  -28.4852   31.7954 H   0  0  0  0  0  0  0  0  0  0  0  0
  -10.4272  -23.8105   31.2495 H   0  0  0  0  0  0  0  0  0  0  0  0
  -11.4182  -22.4938   31.6137 H   0  0  0  0  0  0  0  0  0  0  0  0
  -10.4350  -22.3277   27.9336 H   0  0  0  0  0  0  0  0  0  0  0  0
  -11.2806  -23.3804   26.8562 H   0  0  0  0  0  0  0  0  0  0  0  0
  -11.7218  -21.6976   26.8757 H   0  0  0  0  0  0  0  0  0  0  0  0
  -12.7918  -21.7058   30.2583 H   0  0  0  0  0  0  0  0  0  0  0  0
  -11.1108  -21.5604   29.7824 H   0  0  0  0  0  0  0  0  0  0  0  0
  -12.3753  -20.7614   28.9037 H   0  0  0  0  0  0  0  0  0  0  0  0
  -14.5232  -26.4728   25.0167 H   0  0  0  0  0  0  0  0  0  0  0  0
  -14.3932  -23.3916   23.1763 H   0  0  0  0  0  0  0  0  0  0  0  0
  -15.4288  -23.3728   24.5651 H   0  0  0  0  0  0  0  0  0  0  0  0
  -10.7772  -24.4679   25.4830 H   0  0  0  0  0  0  0  0  0  0  0  0
  1  2  1  0
  2  3  2  0
  3  4  1  0
  4  5  1  0
  5  6  1  0
  6  7  1  0
  7  8  1  0
  8  9  2  0
  9 10  2  0
  9 11  1  0
 11 12  1  0
 12 13  1  0
 13 14  1  0
 14 15  1  0
 15 16  1  0
 16 17  2  0
 17 18  1  0
 18 19  1  0
 19 20  2  0
 20 21  1  0
 14 22  1  0
  9 23  1  0
 23 24  1  0
 23 25  1  0
  4 26  2  0
 26 27  1  0
 27 28  1  0
 28 29  1  0
 28 30  2  0
 28 31  2  0
 27 32  2  0
 32  2  1  0
 22 11  1  0
 20 16  1  0
  1 33  1  0
  1 34  1  0
  1 35  1  0
  3 36  1  0
  6 37  1  0
  6 38  1  0
  7 39  1  0
  7 40  1  0
 11 41  1  0
 12 42  1  0
 12 43  1  0
 13 44  1  0
 13 45  1  0
 15 46  1  0
 15 47  1  0
 17 48  1  0
 22 49  1  0
 22 50  1  0
 24 51  1  0
 24 52  1  0
 24 53  1  0
 25 54  1  0
 25 55  1  0
 25 56  1  0
 26 57  1  0
 29 58  1  0
 29 59  1  0
 32 60  1  0
M  END
>  <Energy>  (157) 
130.54249242190738

>  <compound_id>  (157) 
3204

>  <target_id>  (157) 
1

>  <reference_id>  (157) 
82

>  <inspiration_ids>  (157) 
[104, 82]

>  <energy_score>  (157) 
167.61945084351714

>  <distance_score>  (157) 
1.9441430646055156

>  <path>  (157) 
/opt/xchem-fragalysis-2/maxwin/BulkDock/SCRATCH/505734/C3204-P82/C3204-P82.minimised.mol

>  <scratch_subdir>  (157) 
/opt/xchem-fragalysis-2/maxwin/BulkDock/SCRATCH/505734/C3204-P82

>  <fragmenstein_runtime>  (157) 
8.912312269210815

>  <fragmenstein_outcome>  (157) 
too moved

>  <fragmenstein_mode>  (157) 
expansion

>  <fragmenstein_error>  (157) 


$$$$
C3205-P104
     RDKit          3D

 54 56  0  0  0  0  0  0  0  0999 V2000
  -10.0150  -25.1576   27.8862 C   0  0  0  0  0  0  0  0  0  0  0  0
  -11.1341  -25.7158   27.0415 C   0  0  0  0  0  0  0  0  0  0  0  0
  -11.0279  -27.0776   26.7554 C   0  0  0  0  0  0  0  0  0  0  0  0
  -11.9544  -27.7288   25.9647 C   0  0  0  0  0  0  0  0  0  0  0  0
  -11.8092  -29.0321   25.7163 F   0  0  0  0  0  0  0  0  0  0  0  0
  -13.0168  -27.0431   25.4216 C   0  0  0  0  0  0  0  0  0  0  0  0
  -13.1782  -25.6945   25.7320 C   0  0  0  0  0  0  0  0  0  0  0  0
  -14.5876  -24.8422   25.0848 S   0  0  0  0  0  0  0  0  0  0  0  0
  -15.2253  -25.8782   23.9221 N   0  0  0  0  0  0  0  0  0  0  0  0
  -14.1817  -23.6620   24.3616 O   0  0  0  0  0  0  0  0  0  0  0  0
  -15.5712  -24.7859   26.1372 O   0  0  0  0  0  0  0  0  0  0  0  0
  -12.2897  -25.0270   26.6110 C   0  0  0  0  0  0  0  0  0  0  0  0
  -12.5893  -23.7077   26.9865 N   0  0  0  0  0  0  0  0  0  0  0  0
  -11.9573  -23.0145   27.9407 N   0  0  0  0  0  0  0  0  0  0  0  0
  -11.3591  -21.8530   27.7701 C   0  0  0  0  0  0  0  0  0  0  0  0
  -10.9971  -21.4907   29.0333 C   0  0  0  0  0  0  0  0  0  0  0  0
  -11.5198  -22.3613   29.9455 C   0  0  0  0  0  0  0  0  0  0  0  0
  -11.2350  -22.2247   31.4372 C   0  0  0  0  0  0  0  0  0  0  0  0
  -12.3273  -22.0790   32.4968 C   0  0  0  0  0  0  0  0  0  0  0  0
  -12.3021  -23.0251   33.6314 N   0  0  0  0  0  0  0  0  0  0  0  0
  -12.0424  -24.6338   33.3693 S   0  0  0  0  0  0  0  0  0  0  0  0
  -11.2399  -24.7254   32.1865 O   0  0  0  0  0  0  0  0  0  0  0  0
  -11.3724  -25.3069   34.4525 O   0  0  0  0  0  0  0  0  0  0  0  0
  -13.6481  -25.1815   33.1852 N   0  0  0  0  0  0  0  0  0  0  0  0
  -14.4062  -25.7258   34.3293 C   0  0  0  0  0  0  0  0  0  0  0  0
  -15.7611  -26.2955   33.8718 C   0  0  0  0  0  0  0  0  0  0  0  0
  -16.6887  -25.2467   33.3774 N   0  0  0  0  0  0  0  0  0  0  0  0
  -15.9202  -24.0961   32.8677 C   0  0  0  0  0  0  0  0  0  0  0  0
  -14.5939  -24.5244   32.2345 C   0  0  0  0  0  0  0  0  0  0  0  0
  -12.1084  -23.2979   29.2062 N   0  0  0  0  0  0  0  0  0  0  0  0
   -9.1194  -25.7854   27.8141 H   0  0  0  0  0  0  0  0  0  0  0  0
  -10.2907  -25.1287   28.9419 H   0  0  0  0  0  0  0  0  0  0  0  0
   -9.6991  -24.1750   27.5298 H   0  0  0  0  0  0  0  0  0  0  0  0
  -10.1871  -27.6236   27.1599 H   0  0  0  0  0  0  0  0  0  0  0  0
  -13.7116  -27.5902   24.8006 H   0  0  0  0  0  0  0  0  0  0  0  0
  -16.1798  -26.1294   24.1894 H   0  0  0  0  0  0  0  0  0  0  0  0
  -15.1747  -25.4550   22.9846 H   0  0  0  0  0  0  0  0  0  0  0  0
  -13.5826  -23.5379   27.0974 H   0  0  0  0  0  0  0  0  0  0  0  0
  -11.2444  -21.4489   26.7865 H   0  0  0  0  0  0  0  0  0  0  0  0
  -10.3973  -20.7044   29.3784 H   0  0  0  0  0  0  0  0  0  0  0  0
  -10.7105  -21.2596   31.5113 H   0  0  0  0  0  0  0  0  0  0  0  0
  -10.4263  -22.8842   31.7386 H   0  0  0  0  0  0  0  0  0  0  0  0
  -13.3290  -21.9879   32.0953 H   0  0  0  0  0  0  0  0  0  0  0  0
  -12.1637  -21.1090   32.9852 H   0  0  0  0  0  0  0  0  0  0  0  0
  -11.9301  -22.7108   34.5162 H   0  0  0  0  0  0  0  0  0  0  0  0
  -14.6523  -24.9196   35.0076 H   0  0  0  0  0  0  0  0  0  0  0  0
  -13.8553  -26.4990   34.8576 H   0  0  0  0  0  0  0  0  0  0  0  0
  -15.6027  -27.0403   33.0817 H   0  0  0  0  0  0  0  0  0  0  0  0
  -16.2484  -26.8070   34.7085 H   0  0  0  0  0  0  0  0  0  0  0  0
  -17.2351  -25.6536   32.6189 H   0  0  0  0  0  0  0  0  0  0  0  0
  -16.5333  -23.5703   32.1269 H   0  0  0  0  0  0  0  0  0  0  0  0
  -15.7422  -23.3867   33.6848 H   0  0  0  0  0  0  0  0  0  0  0  0
  -14.1716  -23.6564   31.7614 H   0  0  0  0  0  0  0  0  0  0  0  0
  -14.8666  -25.2497   31.4606 H   0  0  0  0  0  0  0  0  0  0  0  0
  1  2  1  0
  2  3  2  0
  3  4  1  0
  4  5  1  0
  4  6  2  0
  6  7  1  0
  7  8  1  0
  8  9  1  0
  8 10  2  0
  8 11  2  0
  7 12  2  0
 12 13  1  0
 13 14  1  0
 14 15  1  0
 15 16  2  0
 16 17  1  0
 17 18  1  0
 18 19  1  0
 19 20  1  0
 20 21  1  0
 21 22  2  0
 21 23  2  0
 21 24  1  0
 24 25  1  0
 25 26  1  0
 26 27  1  0
 27 28  1  0
 28 29  1  0
 17 30  2  0
 12  2  1  0
 30 14  1  0
 29 24  1  0
  1 31  1  0
  1 32  1  0
  1 33  1  0
  3 34  1  0
  6 35  1  0
  9 36  1  0
  9 37  1  0
 13 38  1  0
 15 39  1  0
 16 40  1  0
 18 41  1  0
 18 42  1  0
 19 43  1  0
 19 44  1  0
 20 45  1  0
 25 46  1  0
 25 47  1  0
 26 48  1  0
 26 49  1  0
 27 50  1  0
 28 51  1  0
 28 52  1  0
 29 53  1  0
 29 54  1  0
M  END
>  <Energy>  (158) 
-154.53041194055075

>  <compound_id>  (158) 
3205

>  <target_id>  (158) 
1

>  <reference_id>  (158) 
104

>  <inspiration_ids>  (158) 
[104, 88]

>  <energy_score>  (158) 
-23.132883969198474

>  <distance_score>  (158) 
3.5477100627165115

>  <path>  (158) 
/opt/xchem-fragalysis-2/maxwin/BulkDock/SCRATCH/505734/C3205-P104/C3205-P104.minimised.mol

>  <scratch_subdir>  (158) 
/opt/xchem-fragalysis-2/maxwin/BulkDock/SCRATCH/505734/C3205-P104

>  <fragmenstein_runtime>  (158) 
13.349987506866455

>  <fragmenstein_outcome>  (158) 
too moved

>  <fragmenstein_mode>  (158) 
expansion

>  <fragmenstein_error>  (158) 


$$$$
C3205-P88
     RDKit          3D

 54 56  0  0  0  0  0  0  0  0999 V2000
  -10.9924  -26.3945   28.5377 C   0  0  0  0  0  0  0  0  0  0  0  0
  -12.0557  -25.8848   27.6365 C   0  0  0  0  0  0  0  0  0  0  0  0
  -12.8572  -26.9040   27.1232 C   0  0  0  0  0  0  0  0  0  0  0  0
  -13.7300  -26.6205   26.1191 C   0  0  0  0  0  0  0  0  0  0  0  0
  -14.3716  -27.6258   25.5337 F   0  0  0  0  0  0  0  0  0  0  0  0
  -13.8633  -25.3399   25.6460 C   0  0  0  0  0  0  0  0  0  0  0  0
  -13.0988  -24.2969   26.1911 C   0  0  0  0  0  0  0  0  0  0  0  0
  -13.0834  -22.8324   25.2156 S   0  0  0  0  0  0  0  0  0  0  0  0
  -14.5137  -22.1219   25.6508 N   0  0  0  0  0  0  0  0  0  0  0  0
  -13.3626  -23.0836   23.8287 O   0  0  0  0  0  0  0  0  0  0  0  0
  -11.9347  -22.0533   25.5604 O   0  0  0  0  0  0  0  0  0  0  0  0
  -12.2232  -24.5185   27.2673 C   0  0  0  0  0  0  0  0  0  0  0  0
  -11.4065  -23.5402   27.8977 N   0  0  0  0  0  0  0  0  0  0  0  0
  -11.7968  -22.3813   28.5762 N   0  0  0  0  0  0  0  0  0  0  0  0
  -11.1586  -21.1799   28.4638 C   0  0  0  0  0  0  0  0  0  0  0  0
  -11.2432  -20.5178   29.6588 C   0  0  0  0  0  0  0  0  0  0  0  0
  -11.9275  -21.3959   30.5053 C   0  0  0  0  0  0  0  0  0  0  0  0
  -12.2479  -21.2028   31.9620 C   0  0  0  0  0  0  0  0  0  0  0  0
  -11.1680  -20.6469   32.8940 C   0  0  0  0  0  0  0  0  0  0  0  0
  -10.7842  -21.6030   33.9643 N   0  0  0  0  0  0  0  0  0  0  0  0
   -9.2872  -22.2973   33.8299 S   0  0  0  0  0  0  0  0  0  0  0  0
   -8.3537  -21.2621   33.4925 O   0  0  0  0  0  0  0  0  0  0  0  0
   -9.1154  -23.1901   34.9471 O   0  0  0  0  0  0  0  0  0  0  0  0
   -9.5514  -23.1396   32.4647 N   0  0  0  0  0  0  0  0  0  0  0  0
  -10.5292  -24.1870   32.6056 C   0  0  0  0  0  0  0  0  0  0  0  0
  -10.7176  -24.9385   31.3088 C   0  0  0  0  0  0  0  0  0  0  0  0
  -10.2134  -24.1800   30.1726 N   0  0  0  0  0  0  0  0  0  0  0  0
   -8.7964  -23.9007   30.3229 C   0  0  0  0  0  0  0  0  0  0  0  0
   -8.3946  -23.6658   31.7942 C   0  0  0  0  0  0  0  0  0  0  0  0
  -12.3226  -22.5005   29.8292 N   0  0  0  0  0  0  0  0  0  0  0  0
  -11.3656  -26.4293   29.5532 H   0  0  0  0  0  0  0  0  0  0  0  0
  -10.0743  -25.8319   28.3803 H   0  0  0  0  0  0  0  0  0  0  0  0
  -10.7486  -27.4348   28.3046 H   0  0  0  0  0  0  0  0  0  0  0  0
  -12.7495  -27.9374   27.4396 H   0  0  0  0  0  0  0  0  0  0  0  0
  -14.5135  -25.1803   24.7978 H   0  0  0  0  0  0  0  0  0  0  0  0
  -15.1383  -22.0614   24.8553 H   0  0  0  0  0  0  0  0  0  0  0  0
  -14.2181  -21.1828   25.9485 H   0  0  0  0  0  0  0  0  0  0  0  0
  -10.8329  -24.0015   28.6102 H   0  0  0  0  0  0  0  0  0  0  0  0
  -10.7069  -20.9079   27.5346 H   0  0  0  0  0  0  0  0  0  0  0  0
  -10.8227  -19.5536   29.8911 H   0  0  0  0  0  0  0  0  0  0  0  0
  -12.5704  -22.1495   32.3508 H   0  0  0  0  0  0  0  0  0  0  0  0
  -13.1119  -20.5272   32.0028 H   0  0  0  0  0  0  0  0  0  0  0  0
  -11.5737  -19.7654   33.4077 H   0  0  0  0  0  0  0  0  0  0  0  0
  -10.3053  -20.2836   32.3346 H   0  0  0  0  0  0  0  0  0  0  0  0
  -10.9738  -21.2664   34.9138 H   0  0  0  0  0  0  0  0  0  0  0  0
  -11.4540  -23.6896   32.8464 H   0  0  0  0  0  0  0  0  0  0  0  0
  -10.2217  -24.8870   33.3905 H   0  0  0  0  0  0  0  0  0  0  0  0
  -11.7746  -25.1618   31.1632 H   0  0  0  0  0  0  0  0  0  0  0  0
  -10.2143  -25.8922   31.3771 H   0  0  0  0  0  0  0  0  0  0  0  0
  -10.6618  -23.2707   30.3506 H   0  0  0  0  0  0  0  0  0  0  0  0
   -8.5739  -23.0131   29.7329 H   0  0  0  0  0  0  0  0  0  0  0  0
   -8.2382  -24.7150   29.8641 H   0  0  0  0  0  0  0  0  0  0  0  0
   -7.5600  -22.9789   31.8622 H   0  0  0  0  0  0  0  0  0  0  0  0
   -8.1251  -24.6039   32.2995 H   0  0  0  0  0  0  0  0  0  0  0  0
  1  2  1  0
  2  3  2  0
  3  4  1  0
  4  5  1  0
  4  6  2  0
  6  7  1  0
  7  8  1  0
  8  9  1  0
  8 10  2  0
  8 11  2  0
  7 12  2  0
 12 13  1  0
 13 14  1  0
 14 15  1  0
 15 16  2  0
 16 17  1  0
 17 18  1  0
 18 19  1  0
 19 20  1  0
 20 21  1  0
 21 22  2  0
 21 23  2  0
 21 24  1  0
 24 25  1  0
 25 26  1  0
 26 27  1  0
 27 28  1  0
 28 29  1  0
 17 30  2  0
 12  2  1  0
 30 14  1  0
 29 24  1  0
  1 31  1  0
  1 32  1  0
  1 33  1  0
  3 34  1  0
  6 35  1  0
  9 36  1  0
  9 37  1  0
 13 38  1  0
 15 39  1  0
 16 40  1  0
 18 41  1  0
 18 42  1  0
 19 43  1  0
 19 44  1  0
 20 45  1  0
 25 46  1  0
 25 47  1  0
 26 48  1  0
 26 49  1  0
 27 50  1  0
 28 51  1  0
 28 52  1  0
 29 53  1  0
 29 54  1  0
M  END
>  <Energy>  (159) 
-168.23261700900929

>  <compound_id>  (159) 
3205

>  <target_id>  (159) 
1

>  <reference_id>  (159) 
88

>  <inspiration_ids>  (159) 
[104, 88]

>  <energy_score>  (159) 
-41.65510442551363

>  <distance_score>  (159) 
1.7833345651736803

>  <path>  (159) 
/opt/xchem-fragalysis-2/maxwin/BulkDock/SCRATCH/505734/C3205-P88/C3205-P88.minimised.mol

>  <scratch_subdir>  (159) 
/opt/xchem-fragalysis-2/maxwin/BulkDock/SCRATCH/505734/C3205-P88

>  <fragmenstein_runtime>  (159) 
7.9084014892578125

>  <fragmenstein_outcome>  (159) 
too moved

>  <fragmenstein_mode>  (159) 
expansion

>  <fragmenstein_error>  (159) 


$$$$
C1613-P104
     RDKit          3D

 44 47  0  0  0  0  0  0  0  0999 V2000
  -12.5351  -30.3567   26.4971 C   0  0  0  0  0  0  0  0  0  0  0  0
  -11.7224  -30.7535   25.2888 C   0  0  0  0  0  0  0  0  0  0  0  0
  -10.5936  -29.5734   24.5956 S   0  0  0  0  0  0  0  0  0  0  0  0
   -9.2566  -29.9225   25.0004 O   0  0  0  0  0  0  0  0  0  0  0  0
  -11.1809  -28.1274   24.8319 N   0  0  0  0  0  0  0  0  0  0  0  0
  -11.0076  -27.5013   26.2625 C   0  0  0  0  0  0  0  0  0  0  0  0
  -11.4099  -26.0565   26.3465 C   0  0  0  0  0  0  0  0  0  0  0  0
  -10.7047  -25.1042   26.9985 C   0  0  0  0  0  0  0  0  0  0  0  0
  -11.0847  -23.7736   27.0993 N   0  0  0  0  0  0  0  0  0  0  0  0
  -12.1877  -23.3902   26.5175 C   0  0  0  0  0  0  0  0  0  0  0  0
  -13.0058  -24.3375   25.8416 C   0  0  0  0  0  0  0  0  0  0  0  0
  -14.1690  -24.1857   25.2569 N   0  0  0  0  0  0  0  0  0  0  0  0
  -14.5432  -25.4343   24.8016 N   0  0  0  0  0  0  0  0  0  0  0  0
  -13.6007  -26.2914   25.1292 C   0  0  0  0  0  0  0  0  0  0  0  0
  -12.5981  -25.6458   25.7825 N   0  0  0  0  0  0  0  0  0  0  0  0
  -10.3806  -30.0254   22.9651 N   0  0  0  0  0  0  0  0  0  0  0  0
   -9.4624  -31.2208   22.6804 C   0  0  0  0  0  0  0  0  0  0  0  0
   -9.9413  -32.6206   22.9662 C   0  0  0  0  0  0  0  0  0  0  0  0
  -11.2967  -32.8968   23.1545 C   0  0  0  0  0  0  0  0  0  0  0  0
  -11.7245  -34.0877   23.7074 C   0  0  0  0  0  0  0  0  0  0  0  0
  -10.7733  -35.0308   23.9420 C   0  0  0  0  0  0  0  0  0  0  0  0
   -9.4789  -34.8754   23.5245 C   0  0  0  0  0  0  0  0  0  0  0  0
   -9.0395  -33.6898   22.9848 C   0  0  0  0  0  0  0  0  0  0  0  0
   -8.7094  -35.9306   23.8801 O   0  0  0  0  0  0  0  0  0  0  0  0
   -9.6422  -36.6694   24.6930 C   0  0  0  0  0  0  0  0  0  0  0  0
  -10.9788  -36.1592   24.6541 O   0  0  0  0  0  0  0  0  0  0  0  0
  -13.2021  -31.1741   26.7906 H   0  0  0  0  0  0  0  0  0  0  0  0
  -11.9244  -30.1328   27.3567 H   0  0  0  0  0  0  0  0  0  0  0  0
  -13.1498  -29.4752   26.3045 H   0  0  0  0  0  0  0  0  0  0  0  0
  -11.0886  -31.6115   25.4575 H   0  0  0  0  0  0  0  0  0  0  0  0
  -12.4395  -31.0592   24.5425 H   0  0  0  0  0  0  0  0  0  0  0  0
  -11.6359  -28.0434   26.9682 H   0  0  0  0  0  0  0  0  0  0  0  0
   -9.9762  -27.6033   26.6053 H   0  0  0  0  0  0  0  0  0  0  0  0
   -9.7693  -25.3497   27.5007 H   0  0  0  0  0  0  0  0  0  0  0  0
  -12.4993  -22.3348   26.5683 H   0  0  0  0  0  0  0  0  0  0  0  0
  -13.6018  -27.3490   24.9118 H   0  0  0  0  0  0  0  0  0  0  0  0
  -11.3076  -30.1753   22.5856 H   0  0  0  0  0  0  0  0  0  0  0  0
   -9.3525  -31.2270   21.6171 H   0  0  0  0  0  0  0  0  0  0  0  0
   -8.4674  -31.0426   23.0980 H   0  0  0  0  0  0  0  0  0  0  0  0
  -12.0511  -32.1576   22.9069 H   0  0  0  0  0  0  0  0  0  0  0  0
  -12.7622  -34.2549   23.9681 H   0  0  0  0  0  0  0  0  0  0  0  0
   -8.0089  -33.5432   22.6812 H   0  0  0  0  0  0  0  0  0  0  0  0
   -9.6551  -37.7075   24.3416 H   0  0  0  0  0  0  0  0  0  0  0  0
   -9.2893  -36.6653   25.7315 H   0  0  0  0  0  0  0  0  0  0  0  0
  1  2  1  0
  2  3  1  0
  3  4  2  0
  3  5  2  0
  5  6  1  0
  6  7  1  0
  7  8  2  0
  8  9  1  0
  9 10  2  0
 10 11  1  0
 11 12  2  0
 12 13  1  0
 13 14  2  0
 14 15  1  0
  3 16  1  0
 16 17  1  0
 17 18  1  0
 18 19  2  0
 19 20  1  0
 20 21  2  0
 21 22  1  0
 22 23  2  0
 22 24  1  0
 24 25  1  0
 25 26  1  0
 15  7  1  0
 23 18  1  0
 15 11  1  0
 26 21  1  0
  1 27  1  0
  1 28  1  0
  1 29  1  0
  2 30  1  0
  2 31  1  0
  6 32  1  0
  6 33  1  0
  8 34  1  0
 10 35  1  0
 14 36  1  0
 16 37  1  0
 17 38  1  0
 17 39  1  0
 19 40  1  0
 20 41  1  0
 23 42  1  0
 25 43  1  0
 25 44  1  0
M  END
>  <Energy>  (160) 
-56.30783294617688

>  <compound_id>  (160) 
1613

>  <target_id>  (160) 
1

>  <reference_id>  (160) 
104

>  <inspiration_ids>  (160) 
[104, 90]

>  <energy_score>  (160) 
-15.167492754156427

>  <distance_score>  (160) 
3.419521071301152

>  <path>  (160) 
/opt/xchem-fragalysis-2/maxwin/BulkDock/SCRATCH/505734/C1613-P104/C1613-P104.minimised.mol

>  <scratch_subdir>  (160) 
/opt/xchem-fragalysis-2/maxwin/BulkDock/SCRATCH/505734/C1613-P104

>  <fragmenstein_runtime>  (160) 
6.060720682144165

>  <fragmenstein_outcome>  (160) 
too moved

>  <fragmenstein_mode>  (160) 
expansion

>  <fragmenstein_error>  (160) 


$$$$
C3215-P105
     RDKit          3D

 36 39  0  0  0  0  0  0  0  0999 V2000
    6.1407   -4.0955   37.3776 C   0  0  0  0  0  0  0  0  0  0  0  0
    5.1764   -3.1730   36.8868 O   0  0  0  0  0  0  0  0  0  0  0  0
    4.2159   -3.6477   36.0353 C   0  0  0  0  0  0  0  0  0  0  0  0
    4.2629   -4.9063   35.4371 C   0  0  0  0  0  0  0  0  0  0  0  0
    3.2280   -5.3215   34.6049 C   0  0  0  0  0  0  0  0  0  0  0  0
    2.1134   -4.5059   34.3750 C   0  0  0  0  0  0  0  0  0  0  0  0
    1.0762   -5.0380   33.4923 C   0  0  0  0  0  0  0  0  0  0  0  0
    0.1309   -5.8516   33.9963 C   0  0  0  0  0  0  0  0  0  0  0  0
   -0.2319   -6.1091   35.4297 C   0  0  0  0  0  0  0  0  0  0  0  0
   -1.1199   -6.9852   35.8217 N   0  0  0  0  0  0  0  0  0  0  0  0
   -1.7061   -7.7560   34.8246 C   0  0  0  0  0  0  0  0  0  0  0  0
   -1.4246   -7.6268   33.5188 C   0  0  0  0  0  0  0  0  0  0  0  0
   -1.8000   -8.2491   32.3500 N   0  0  0  0  0  0  0  0  0  0  0  0
   -1.2152   -7.6103   31.2264 N   0  0  0  0  0  0  0  0  0  0  0  0
   -0.4553   -6.6747   31.7776 C   0  0  0  0  0  0  0  0  0  0  0  0
    0.4624   -5.6999   31.1481 C   0  0  0  0  0  0  0  0  0  0  0  0
    1.1669   -4.9377   32.0188 C   0  0  0  0  0  0  0  0  0  0  0  0
   -0.5788   -6.6392   33.1400 N   0  0  0  0  0  0  0  0  0  0  0  0
    2.0519   -3.2526   34.9639 C   0  0  0  0  0  0  0  0  0  0  0  0
    3.1200   -2.8109   35.7548 C   0  0  0  0  0  0  0  0  0  0  0  0
    2.9564   -1.5393   36.2214 O   0  0  0  0  0  0  0  0  0  0  0  0
    4.1202   -0.7180   36.1980 C   0  0  0  0  0  0  0  0  0  0  0  0
    6.7431   -3.5789   38.1312 H   0  0  0  0  0  0  0  0  0  0  0  0
    5.6628   -4.9526   37.8637 H   0  0  0  0  0  0  0  0  0  0  0  0
    6.8149   -4.4180   36.5778 H   0  0  0  0  0  0  0  0  0  0  0  0
    5.0943   -5.5851   35.5950 H   0  0  0  0  0  0  0  0  0  0  0  0
    3.2916   -6.3061   34.1468 H   0  0  0  0  0  0  0  0  0  0  0  0
    0.2755   -5.4927   36.1886 H   0  0  0  0  0  0  0  0  0  0  0  0
   -2.4035   -8.5096   35.1665 H   0  0  0  0  0  0  0  0  0  0  0  0
   -2.6435   -8.8188   32.3001 H   0  0  0  0  0  0  0  0  0  0  0  0
    0.5271   -5.6345   30.0732 H   0  0  0  0  0  0  0  0  0  0  0  0
    1.8623   -4.1965   31.6296 H   0  0  0  0  0  0  0  0  0  0  0  0
    1.2041   -2.5947   34.7896 H   0  0  0  0  0  0  0  0  0  0  0  0
    4.6511   -0.7831   37.1521 H   0  0  0  0  0  0  0  0  0  0  0  0
    3.7899    0.3187   36.0785 H   0  0  0  0  0  0  0  0  0  0  0  0
    4.7844   -0.9506   35.3579 H   0  0  0  0  0  0  0  0  0  0  0  0
  1  2  1  0
  2  3  1  0
  3  4  2  0
  4  5  1  0
  5  6  2  0
  6  7  1  0
  7  8  2  0
  8  9  1  0
  9 10  2  0
 10 11  1  0
 11 12  2  0
 12 13  1  0
 13 14  1  0
 14 15  2  0
 15 16  1  0
 16 17  2  0
 15 18  1  0
  6 19  1  0
 19 20  2  0
 20 21  1  0
 21 22  1  0
 20  3  1  0
 17  7  1  0
 18  8  1  0
 18 12  1  0
  1 23  1  0
  1 24  1  0
  1 25  1  0
  4 26  1  0
  5 27  1  0
  9 28  1  0
 11 29  1  0
 13 30  1  0
 16 31  1  0
 17 32  1  0
 19 33  1  0
 22 34  1  0
 22 35  1  0
 22 36  1  0
M  END
>  <Energy>  (161) 
137.23936718110517

>  <compound_id>  (161) 
3215

>  <target_id>  (161) 
1

>  <reference_id>  (161) 
105

>  <inspiration_ids>  (161) 
[105, 41]

>  <energy_score>  (161) 
-30.776339049666888

>  <distance_score>  (161) 
1.5469059391289262

>  <path>  (161) 
/opt/xchem-fragalysis-2/maxwin/BulkDock/SCRATCH/505734/C3215-P105/C3215-P105.minimised.mol

>  <scratch_subdir>  (161) 
/opt/xchem-fragalysis-2/maxwin/BulkDock/SCRATCH/505734/C3215-P105

>  <fragmenstein_runtime>  (161) 
1.423872709274292

>  <fragmenstein_outcome>  (161) 
too moved

>  <fragmenstein_mode>  (161) 
expansion

>  <fragmenstein_error>  (161) 


$$$$
C3215-P41
     RDKit          3D

 36 39  0  0  0  0  0  0  0  0999 V2000
    6.1036   -4.0983   37.4074 C   0  0  0  0  0  0  0  0  0  0  0  0
    5.1437   -3.1776   36.9049 O   0  0  0  0  0  0  0  0  0  0  0  0
    4.1918   -3.6542   36.0449 C   0  0  0  0  0  0  0  0  0  0  0  0
    4.2397   -4.9174   35.4567 C   0  0  0  0  0  0  0  0  0  0  0  0
    3.2130   -5.3335   34.6148 C   0  0  0  0  0  0  0  0  0  0  0  0
    2.1055   -4.5147   34.3640 C   0  0  0  0  0  0  0  0  0  0  0  0
    1.0775   -5.0466   33.4699 C   0  0  0  0  0  0  0  0  0  0  0  0
    0.1155   -5.8465   33.9641 C   0  0  0  0  0  0  0  0  0  0  0  0
   -0.2684   -6.0945   35.3937 C   0  0  0  0  0  0  0  0  0  0  0  0
   -1.1739   -6.9568   35.7765 N   0  0  0  0  0  0  0  0  0  0  0  0
   -1.7621   -7.7177   34.7735 C   0  0  0  0  0  0  0  0  0  0  0  0
   -1.4641   -7.5960   33.4721 C   0  0  0  0  0  0  0  0  0  0  0  0
   -1.8396   -8.2148   32.3032 N   0  0  0  0  0  0  0  0  0  0  0  0
   -1.2292   -7.5927   31.1844 N   0  0  0  0  0  0  0  0  0  0  0  0
   -0.4589   -6.6678   31.7405 C   0  0  0  0  0  0  0  0  0  0  0  0
    0.4823   -5.7092   31.1200 C   0  0  0  0  0  0  0  0  0  0  0  0
    1.1878   -4.9546   31.9970 C   0  0  0  0  0  0  0  0  0  0  0  0
   -0.5951   -6.6265   33.1014 N   0  0  0  0  0  0  0  0  0  0  0  0
    2.0432   -3.2570   34.9436 C   0  0  0  0  0  0  0  0  0  0  0  0
    3.1036   -2.8146   35.7446 C   0  0  0  0  0  0  0  0  0  0  0  0
    2.9410   -1.5387   36.1999 O   0  0  0  0  0  0  0  0  0  0  0  0
    4.1087   -0.7227   36.1803 C   0  0  0  0  0  0  0  0  0  0  0  0
    6.7011   -3.5784   38.1624 H   0  0  0  0  0  0  0  0  0  0  0  0
    5.6212   -4.9523   37.8947 H   0  0  0  0  0  0  0  0  0  0  0  0
    6.7831   -4.4259   36.6141 H   0  0  0  0  0  0  0  0  0  0  0  0
    5.0655   -5.5992   35.6301 H   0  0  0  0  0  0  0  0  0  0  0  0
    3.2784   -6.3214   34.1654 H   0  0  0  0  0  0  0  0  0  0  0  0
    0.2396   -5.4847   36.1575 H   0  0  0  0  0  0  0  0  0  0  0  0
   -2.4778   -8.4591   35.1027 H   0  0  0  0  0  0  0  0  0  0  0  0
   -2.6890   -8.7771   32.2529 H   0  0  0  0  0  0  0  0  0  0  0  0
    0.5604   -5.6471   30.0457 H   0  0  0  0  0  0  0  0  0  0  0  0
    1.8978   -4.2245   31.6131 H   0  0  0  0  0  0  0  0  0  0  0  0
    1.2013   -2.5957   34.7535 H   0  0  0  0  0  0  0  0  0  0  0  0
    4.6300   -0.7813   37.1401 H   0  0  0  0  0  0  0  0  0  0  0  0
    3.7841    0.3143   36.0481 H   0  0  0  0  0  0  0  0  0  0  0  0
    4.7800   -0.9659   35.3490 H   0  0  0  0  0  0  0  0  0  0  0  0
  1  2  1  0
  2  3  1  0
  3  4  2  0
  4  5  1  0
  5  6  2  0
  6  7  1  0
  7  8  2  0
  8  9  1  0
  9 10  2  0
 10 11  1  0
 11 12  2  0
 12 13  1  0
 13 14  1  0
 14 15  2  0
 15 16  1  0
 16 17  2  0
 15 18  1  0
  6 19  1  0
 19 20  2  0
 20 21  1  0
 21 22  1  0
 20  3  1  0
 17  7  1  0
 18  8  1  0
 18 12  1  0
  1 23  1  0
  1 24  1  0
  1 25  1  0
  4 26  1  0
  5 27  1  0
  9 28  1  0
 11 29  1  0
 13 30  1  0
 16 31  1  0
 17 32  1  0
 19 33  1  0
 22 34  1  0
 22 35  1  0
 22 36  1  0
M  END
>  <Energy>  (162) 
137.06813743387431

>  <compound_id>  (162) 
3215

>  <target_id>  (162) 
1

>  <reference_id>  (162) 
41

>  <inspiration_ids>  (162) 
[105, 41]

>  <energy_score>  (162) 
-30.9475687968972

>  <distance_score>  (162) 
1.5532675023458948

>  <path>  (162) 
/opt/xchem-fragalysis-2/maxwin/BulkDock/SCRATCH/505734/C3215-P41/C3215-P41.minimised.mol

>  <scratch_subdir>  (162) 
/opt/xchem-fragalysis-2/maxwin/BulkDock/SCRATCH/505734/C3215-P41

>  <fragmenstein_runtime>  (162) 
1.2201292514801025

>  <fragmenstein_outcome>  (162) 
too moved

>  <fragmenstein_mode>  (162) 
expansion

>  <fragmenstein_error>  (162) 


$$$$
C3216-P105
     RDKit          3D

 33 35  0  0  0  0  0  0  0  0999 V2000
    3.2291   -5.4552   34.6702 C   0  0  0  0  0  0  0  0  0  0  0  0
    1.9617   -4.6974   34.3615 N   0  0  0  0  0  0  0  0  0  0  0  0
    2.8465   -3.5565   34.7776 C   0  0  0  0  0  0  0  0  0  0  0  0
    2.3311   -3.1770   36.1709 C   0  0  0  0  0  0  0  0  0  0  0  0
    0.9377   -3.0715   36.3820 C   0  0  0  0  0  0  0  0  0  0  0  0
    0.4103   -2.9566   37.6644 C   0  0  0  0  0  0  0  0  0  0  0  0
    1.2712   -2.8993   38.7529 C   0  0  0  0  0  0  0  0  0  0  0  0
    2.6526   -2.9469   38.5547 C   0  0  0  0  0  0  0  0  0  0  0  0
    3.1852   -3.0883   37.2703 C   0  0  0  0  0  0  0  0  0  0  0  0
    1.4199   -5.0722   33.0175 C   0  0  0  0  0  0  0  0  0  0  0  0
    1.6242   -4.6086   31.9614 O   0  0  0  0  0  0  0  0  0  0  0  0
    0.4127   -6.1613   33.2637 C   0  0  0  0  0  0  0  0  0  0  0  0
   -0.0722   -6.3581   34.5186 C   0  0  0  0  0  0  0  0  0  0  0  0
   -1.0861   -7.2304   34.8609 N   0  0  0  0  0  0  0  0  0  0  0  0
   -1.6263   -7.9111   33.8935 C   0  0  0  0  0  0  0  0  0  0  0  0
   -1.1946   -7.7664   32.5430 C   0  0  0  0  0  0  0  0  0  0  0  0
   -1.6519   -8.3452   31.4616 N   0  0  0  0  0  0  0  0  0  0  0  0
   -0.9418   -7.8139   30.4077 N   0  0  0  0  0  0  0  0  0  0  0  0
   -0.0836   -6.9362   30.8928 C   0  0  0  0  0  0  0  0  0  0  0  0
   -0.1947   -6.8828   32.2504 N   0  0  0  0  0  0  0  0  0  0  0  0
    2.9547   -6.5149   34.5511 H   0  0  0  0  0  0  0  0  0  0  0  0
    4.0105   -5.3311   33.9016 H   0  0  0  0  0  0  0  0  0  0  0  0
    3.5870   -5.4156   35.7098 H   0  0  0  0  0  0  0  0  0  0  0  0
    2.5258   -2.7326   34.1201 H   0  0  0  0  0  0  0  0  0  0  0  0
    3.9453   -3.5148   34.6588 H   0  0  0  0  0  0  0  0  0  0  0  0
    0.2480   -3.1254   35.5407 H   0  0  0  0  0  0  0  0  0  0  0  0
   -0.6653   -2.9086   37.8115 H   0  0  0  0  0  0  0  0  0  0  0  0
    0.8697   -2.8050   39.7587 H   0  0  0  0  0  0  0  0  0  0  0  0
    3.3191   -2.8924   39.4126 H   0  0  0  0  0  0  0  0  0  0  0  0
    4.2623   -3.1666   37.1481 H   0  0  0  0  0  0  0  0  0  0  0  0
    0.2765   -5.7945   35.3798 H   0  0  0  0  0  0  0  0  0  0  0  0
   -2.4631   -8.5843   34.1172 H   0  0  0  0  0  0  0  0  0  0  0  0
    0.6052   -6.3294   30.3218 H   0  0  0  0  0  0  0  0  0  0  0  0
  1  2  1  0
  2  3  1  0
  3  4  1  0
  4  5  2  0
  5  6  1  0
  6  7  2  0
  7  8  1  0
  8  9  2  0
  2 10  1  0
 10 11  2  0
 10 12  1  0
 12 13  2  0
 13 14  1  0
 14 15  2  0
 15 16  1  0
 16 17  2  0
 17 18  1  0
 18 19  2  0
 19 20  1  0
  9  4  1  0
 20 12  1  0
 20 16  1  0
  1 21  1  0
  1 22  1  0
  1 23  1  0
  3 24  1  0
  3 25  1  0
  5 26  1  0
  6 27  1  0
  7 28  1  0
  8 29  1  0
  9 30  1  0
 13 31  1  0
 15 32  1  0
 19 33  1  0
M  END
>  <Energy>  (163) 
102.66662582957991

>  <compound_id>  (163) 
3216

>  <target_id>  (163) 
1

>  <reference_id>  (163) 
105

>  <inspiration_ids>  (163) 
[105, 56]

>  <energy_score>  (163) 
69.51520340633468

>  <distance_score>  (163) 
1.1058243126239016

>  <path>  (163) 
/opt/xchem-fragalysis-2/maxwin/BulkDock/SCRATCH/505734/C3216-P105/C3216-P105.minimised.mol

>  <scratch_subdir>  (163) 
/opt/xchem-fragalysis-2/maxwin/BulkDock/SCRATCH/505734/C3216-P105

>  <fragmenstein_runtime>  (163) 
0.9430460929870605

>  <fragmenstein_outcome>  (163) 
too moved

>  <fragmenstein_mode>  (163) 
expansion

>  <fragmenstein_error>  (163) 


$$$$
C3216-P56
     RDKit          3D

 33 35  0  0  0  0  0  0  0  0999 V2000
    2.9395   -5.0225   34.6106 C   0  0  0  0  0  0  0  0  0  0  0  0
    1.5245   -4.5229   34.4350 N   0  0  0  0  0  0  0  0  0  0  0  0
    2.2025   -3.2412   34.8120 C   0  0  0  0  0  0  0  0  0  0  0  0
    1.7580   -2.9702   36.2476 C   0  0  0  0  0  0  0  0  0  0  0  0
    0.3993   -3.1472   36.5894 C   0  0  0  0  0  0  0  0  0  0  0  0
   -0.0168   -3.1065   37.9153 C   0  0  0  0  0  0  0  0  0  0  0  0
    0.9143   -2.8507   38.9147 C   0  0  0  0  0  0  0  0  0  0  0  0
    2.2527   -2.6288   38.5857 C   0  0  0  0  0  0  0  0  0  0  0  0
    2.6777   -2.6891   37.2571 C   0  0  0  0  0  0  0  0  0  0  0  0
    0.9483   -4.9746   33.1299 C   0  0  0  0  0  0  0  0  0  0  0  0
    0.9637   -4.4621   32.0755 O   0  0  0  0  0  0  0  0  0  0  0  0
    0.1909   -6.2471   33.4074 C   0  0  0  0  0  0  0  0  0  0  0  0
   -0.0518   -6.6599   34.6792 C   0  0  0  0  0  0  0  0  0  0  0  0
   -0.8347   -7.7484   35.0395 N   0  0  0  0  0  0  0  0  0  0  0  0
   -1.4562   -8.3766   34.0810 C   0  0  0  0  0  0  0  0  0  0  0  0
   -1.2857   -7.9898   32.7193 C   0  0  0  0  0  0  0  0  0  0  0  0
   -1.8485   -8.4861   31.6482 N   0  0  0  0  0  0  0  0  0  0  0  0
   -1.3423   -7.7757   30.5811 N   0  0  0  0  0  0  0  0  0  0  0  0
   -0.4916   -6.8821   31.0449 C   0  0  0  0  0  0  0  0  0  0  0  0
   -0.4414   -6.9597   32.4045 N   0  0  0  0  0  0  0  0  0  0  0  0
    2.8584   -6.1145   34.5517 H   0  0  0  0  0  0  0  0  0  0  0  0
    3.5890   -4.7739   33.7551 H   0  0  0  0  0  0  0  0  0  0  0  0
    3.4042   -4.8783   35.5951 H   0  0  0  0  0  0  0  0  0  0  0  0
    1.6690   -2.4898   34.2073 H   0  0  0  0  0  0  0  0  0  0  0  0
    3.2536   -2.9808   34.5839 H   0  0  0  0  0  0  0  0  0  0  0  0
   -0.3382   -3.3629   35.8173 H   0  0  0  0  0  0  0  0  0  0  0  0
   -1.0600   -3.2749   38.1670 H   0  0  0  0  0  0  0  0  0  0  0  0
    0.6000   -2.8206   39.9543 H   0  0  0  0  0  0  0  0  0  0  0  0
    2.9764   -2.4394   39.3735 H   0  0  0  0  0  0  0  0  0  0  0  0
    3.7339   -2.5742   37.0304 H   0  0  0  0  0  0  0  0  0  0  0  0
    0.3341   -6.1246   35.5428 H   0  0  0  0  0  0  0  0  0  0  0  0
   -2.1066   -9.2328   34.3201 H   0  0  0  0  0  0  0  0  0  0  0  0
    0.0866   -6.1844   30.4553 H   0  0  0  0  0  0  0  0  0  0  0  0
  1  2  1  0
  2  3  1  0
  3  4  1  0
  4  5  2  0
  5  6  1  0
  6  7  2  0
  7  8  1  0
  8  9  2  0
  2 10  1  0
 10 11  2  0
 10 12  1  0
 12 13  2  0
 13 14  1  0
 14 15  2  0
 15 16  1  0
 16 17  2  0
 17 18  1  0
 18 19  2  0
 19 20  1  0
  9  4  1  0
 20 12  1  0
 20 16  1  0
  1 21  1  0
  1 22  1  0
  1 23  1  0
  3 24  1  0
  3 25  1  0
  5 26  1  0
  6 27  1  0
  7 28  1  0
  8 29  1  0
  9 30  1  0
 13 31  1  0
 15 32  1  0
 19 33  1  0
M  END
>  <Energy>  (164) 
101.32046850667636

>  <compound_id>  (164) 
3216

>  <target_id>  (164) 
1

>  <reference_id>  (164) 
56

>  <inspiration_ids>  (164) 
[105, 56]

>  <energy_score>  (164) 
68.16904608343243

>  <distance_score>  (164) 
1.10175978012647

>  <path>  (164) 
/opt/xchem-fragalysis-2/maxwin/BulkDock/SCRATCH/505734/C3216-P56/C3216-P56.minimised.mol

>  <scratch_subdir>  (164) 
/opt/xchem-fragalysis-2/maxwin/BulkDock/SCRATCH/505734/C3216-P56

>  <fragmenstein_runtime>  (164) 
1.0357840061187744

>  <fragmenstein_outcome>  (164) 
too moved

>  <fragmenstein_mode>  (164) 
expansion

>  <fragmenstein_error>  (164) 


$$$$
C3216-P105
     RDKit          2D

  0  0  0  0  0  0  0  0  0  0999 V2000
M  END
>  <compound_id>  (165) 
3216

>  <target_id>  (165) 
1

>  <reference_id>  (165) 
105

>  <inspiration_ids>  (165) 
[105, 72]

>  <energy_score>  (165) 
nan

>  <distance_score>  (165) 
nan

>  <path>  (165) 
/opt/xchem-fragalysis-2/maxwin/BulkDock/SCRATCH/505734/C3216-P105/C3216-P105.minimised.mol

>  <scratch_subdir>  (165) 
/opt/xchem-fragalysis-2/maxwin/BulkDock/SCRATCH/505734/C3216-P105

>  <fragmenstein_runtime>  (165) 
0.06085801124572754

>  <fragmenstein_outcome>  (165) 
too distant

>  <fragmenstein_mode>  (165) 
expansion

>  <fragmenstein_error>  (165) 
DistanceError: hit0+hit1

$$$$
C3217-P105
     RDKit          3D

 35 38  0  0  0  0  0  0  0  0999 V2000
    3.6462   -2.9146   40.9414 C   0  0  0  0  0  0  0  0  0  0  0  0
    3.1146   -3.6900   39.8587 N   0  0  0  0  0  0  0  0  0  0  0  0
    3.7218   -4.8718   39.0836 C   0  0  0  0  0  0  0  0  0  0  0  0
    4.7168   -5.4525   39.2510 O   0  0  0  0  0  0  0  0  0  0  0  0
    2.8377   -5.2862   37.9586 C   0  0  0  0  0  0  0  0  0  0  0  0
    2.5400   -6.6430   37.8059 C   0  0  0  0  0  0  0  0  0  0  0  0
    1.7459   -7.0642   36.7515 C   0  0  0  0  0  0  0  0  0  0  0  0
    1.2309   -6.1257   35.8485 C   0  0  0  0  0  0  0  0  0  0  0  0
    0.3274   -6.6033   34.8057 C   0  0  0  0  0  0  0  0  0  0  0  0
    0.6091   -6.4384   33.4999 C   0  0  0  0  0  0  0  0  0  0  0  0
    1.7369   -5.6967   32.8786 C   0  0  0  0  0  0  0  0  0  0  0  0
    1.8841   -5.5357   31.5923 N   0  0  0  0  0  0  0  0  0  0  0  0
    0.9399   -6.1264   30.7601 C   0  0  0  0  0  0  0  0  0  0  0  0
   -0.0515   -6.8972   31.2167 C   0  0  0  0  0  0  0  0  0  0  0  0
   -1.0747   -7.6281   30.6648 N   0  0  0  0  0  0  0  0  0  0  0  0
   -1.9269   -8.1132   31.6959 N   0  0  0  0  0  0  0  0  0  0  0  0
   -1.3298   -7.7176   32.8108 C   0  0  0  0  0  0  0  0  0  0  0  0
   -1.7271   -7.8823   34.2251 C   0  0  0  0  0  0  0  0  0  0  0  0
   -0.9049   -7.3398   35.1442 C   0  0  0  0  0  0  0  0  0  0  0  0
   -0.1923   -7.0131   32.5602 N   0  0  0  0  0  0  0  0  0  0  0  0
    1.5229   -4.7691   35.9982 C   0  0  0  0  0  0  0  0  0  0  0  0
    2.3421   -4.3520   37.0435 C   0  0  0  0  0  0  0  0  0  0  0  0
    3.9430   -1.9376   40.5535 H   0  0  0  0  0  0  0  0  0  0  0  0
    2.8689   -2.7913   41.6983 H   0  0  0  0  0  0  0  0  0  0  0  0
    4.5147   -3.4245   41.3637 H   0  0  0  0  0  0  0  0  0  0  0  0
    2.2733   -3.3760   39.3912 H   0  0  0  0  0  0  0  0  0  0  0  0
    2.9431   -7.3687   38.5104 H   0  0  0  0  0  0  0  0  0  0  0  0
    1.5203   -8.1247   36.6517 H   0  0  0  0  0  0  0  0  0  0  0  0
    2.4905   -5.2556   33.5465 H   0  0  0  0  0  0  0  0  0  0  0  0
    1.0810   -5.9501   29.7020 H   0  0  0  0  0  0  0  0  0  0  0  0
   -1.4328   -7.3435   29.7557 H   0  0  0  0  0  0  0  0  0  0  0  0
   -2.6025   -8.4585   34.4755 H   0  0  0  0  0  0  0  0  0  0  0  0
   -1.1307   -7.4657   36.1993 H   0  0  0  0  0  0  0  0  0  0  0  0
    1.1068   -4.0254   35.3214 H   0  0  0  0  0  0  0  0  0  0  0  0
    2.5973   -3.2990   37.1344 H   0  0  0  0  0  0  0  0  0  0  0  0
  1  2  1  0
  2  3  1  0
  3  4  2  0
  3  5  1  0
  5  6  2  0
  6  7  1  0
  7  8  2  0
  8  9  1  0
  9 10  2  0
 10 11  1  0
 11 12  2  0
 12 13  1  0
 13 14  2  0
 14 15  1  0
 15 16  1  0
 16 17  2  0
 17 18  1  0
 18 19  2  0
 17 20  1  0
  8 21  1  0
 21 22  2  0
 22  5  1  0
 19  9  1  0
 20 10  1  0
 20 14  1  0
  1 23  1  0
  1 24  1  0
  1 25  1  0
  2 26  1  0
  6 27  1  0
  7 28  1  0
 11 29  1  0
 13 30  1  0
 15 31  1  0
 18 32  1  0
 19 33  1  0
 21 34  1  0
 22 35  1  0
M  END
>  <Energy>  (166) 
126.78937515380734

>  <compound_id>  (166) 
3217

>  <target_id>  (166) 
1

>  <reference_id>  (166) 
105

>  <inspiration_ids>  (166) 
[105, 78]

>  <energy_score>  (166) 
-17.494922874569085

>  <distance_score>  (166) 
2.376602108084485

>  <path>  (166) 
/opt/xchem-fragalysis-2/maxwin/BulkDock/SCRATCH/505734/C3217-P105/C3217-P105.minimised.mol

>  <scratch_subdir>  (166) 
/opt/xchem-fragalysis-2/maxwin/BulkDock/SCRATCH/505734/C3217-P105

>  <fragmenstein_runtime>  (166) 
2.8665404319763184

>  <fragmenstein_outcome>  (166) 
too moved

>  <fragmenstein_mode>  (166) 
expansion

>  <fragmenstein_error>  (166) 


$$$$
C3217-P78
     RDKit          3D

 35 38  0  0  0  0  0  0  0  0999 V2000
    4.2164   -3.2245   40.8350 C   0  0  0  0  0  0  0  0  0  0  0  0
    3.5543   -3.9159   39.7673 N   0  0  0  0  0  0  0  0  0  0  0  0
    4.0302   -5.0834   38.8861 C   0  0  0  0  0  0  0  0  0  0  0  0
    5.0040   -5.7193   38.9373 O   0  0  0  0  0  0  0  0  0  0  0  0
    3.0331   -5.3961   37.8244 C   0  0  0  0  0  0  0  0  0  0  0  0
    2.6593   -6.7285   37.6295 C   0  0  0  0  0  0  0  0  0  0  0  0
    1.7587   -7.0550   36.6291 C   0  0  0  0  0  0  0  0  0  0  0  0
    1.2141   -6.0463   35.8230 C   0  0  0  0  0  0  0  0  0  0  0  0
    0.2149   -6.4330   34.8294 C   0  0  0  0  0  0  0  0  0  0  0  0
    0.4379   -6.2681   33.5116 C   0  0  0  0  0  0  0  0  0  0  0  0
    1.6129   -5.6355   32.8549 C   0  0  0  0  0  0  0  0  0  0  0  0
    1.8548   -5.6938   31.5748 N   0  0  0  0  0  0  0  0  0  0  0  0
    0.9663   -6.4215   30.7951 C   0  0  0  0  0  0  0  0  0  0  0  0
   -0.1304   -7.0057   31.2856 C   0  0  0  0  0  0  0  0  0  0  0  0
   -1.0493   -7.9107   30.7881 N   0  0  0  0  0  0  0  0  0  0  0  0
   -1.8308   -8.4034   31.8826 N   0  0  0  0  0  0  0  0  0  0  0  0
   -1.4014   -7.7166   32.9290 C   0  0  0  0  0  0  0  0  0  0  0  0
   -1.7944   -7.8159   34.3511 C   0  0  0  0  0  0  0  0  0  0  0  0
   -0.9969   -7.1734   35.2254 C   0  0  0  0  0  0  0  0  0  0  0  0
   -0.4139   -6.8339   32.6034 N   0  0  0  0  0  0  0  0  0  0  0  0
    1.5834   -4.7151   36.0135 C   0  0  0  0  0  0  0  0  0  0  0  0
    2.5067   -4.3926   37.0043 C   0  0  0  0  0  0  0  0  0  0  0  0
    3.5143   -3.1038   41.6624 H   0  0  0  0  0  0  0  0  0  0  0  0
    5.0899   -3.7970   41.1543 H   0  0  0  0  0  0  0  0  0  0  0  0
    4.5299   -2.2440   40.4697 H   0  0  0  0  0  0  0  0  0  0  0  0
    2.6938   -3.5378   39.3913 H   0  0  0  0  0  0  0  0  0  0  0  0
    3.0859   -7.5087   38.2578 H   0  0  0  0  0  0  0  0  0  0  0  0
    1.4757   -8.0979   36.4949 H   0  0  0  0  0  0  0  0  0  0  0  0
    2.3288   -5.0964   33.4907 H   0  0  0  0  0  0  0  0  0  0  0  0
    1.2548   -6.5444   29.7607 H   0  0  0  0  0  0  0  0  0  0  0  0
   -0.6192   -8.6193   30.1872 H   0  0  0  0  0  0  0  0  0  0  0  0
   -2.6355   -8.4290   34.6322 H   0  0  0  0  0  0  0  0  0  0  0  0
   -1.1968   -7.2429   36.2900 H   0  0  0  0  0  0  0  0  0  0  0  0
    1.1511   -3.9196   35.4097 H   0  0  0  0  0  0  0  0  0  0  0  0
    2.8204   -3.3584   37.1250 H   0  0  0  0  0  0  0  0  0  0  0  0
  1  2  1  0
  2  3  1  0
  3  4  2  0
  3  5  1  0
  5  6  2  0
  6  7  1  0
  7  8  2  0
  8  9  1  0
  9 10  2  0
 10 11  1  0
 11 12  2  0
 12 13  1  0
 13 14  2  0
 14 15  1  0
 15 16  1  0
 16 17  2  0
 17 18  1  0
 18 19  2  0
 17 20  1  0
  8 21  1  0
 21 22  2  0
 22  5  1  0
 19  9  1  0
 20 10  1  0
 20 14  1  0
  1 23  1  0
  1 24  1  0
  1 25  1  0
  2 26  1  0
  6 27  1  0
  7 28  1  0
 11 29  1  0
 13 30  1  0
 15 31  1  0
 18 32  1  0
 19 33  1  0
 21 34  1  0
 22 35  1  0
M  END
>  <Energy>  (167) 
128.17024444802479

>  <compound_id>  (167) 
3217

>  <target_id>  (167) 
1

>  <reference_id>  (167) 
78

>  <inspiration_ids>  (167) 
[105, 78]

>  <energy_score>  (167) 
-16.114053580349093

>  <distance_score>  (167) 
2.3764668474913178

>  <path>  (167) 
/opt/xchem-fragalysis-2/maxwin/BulkDock/SCRATCH/505734/C3217-P78/C3217-P78.minimised.mol

>  <scratch_subdir>  (167) 
/opt/xchem-fragalysis-2/maxwin/BulkDock/SCRATCH/505734/C3217-P78

>  <fragmenstein_runtime>  (167) 
3.206306219100952

>  <fragmenstein_outcome>  (167) 
too moved

>  <fragmenstein_mode>  (167) 
expansion

>  <fragmenstein_error>  (167) 


$$$$
C3218-P105
     RDKit          3D

 33 35  0  0  0  0  0  0  0  0999 V2000
   -2.0451   -7.9220   31.0158 O   0  0  0  0  0  0  0  0  0  0  0  0
   -1.0983   -8.3545   30.4176 C   0  0  0  0  0  0  0  0  0  0  0  0
    0.0889   -7.4028   30.3781 C   0  0  0  0  0  0  0  0  0  0  0  0
    0.4699   -6.9209   31.7811 C   0  0  0  0  0  0  0  0  0  0  0  0
   -0.1099   -7.3729   32.9189 C   0  0  0  0  0  0  0  0  0  0  0  0
    0.2523   -6.8205   34.1189 N   0  0  0  0  0  0  0  0  0  0  0  0
   -0.1124   -7.0504   35.4062 C   0  0  0  0  0  0  0  0  0  0  0  0
    0.5652   -6.2428   36.1953 N   0  0  0  0  0  0  0  0  0  0  0  0
    1.3943   -5.4643   35.4049 N   0  0  0  0  0  0  0  0  0  0  0  0
    1.1795   -5.8318   34.1684 C   0  0  0  0  0  0  0  0  0  0  0  0
    1.7740   -5.3891   32.9511 C   0  0  0  0  0  0  0  0  0  0  0  0
    1.4547   -5.9284   31.8009 N   0  0  0  0  0  0  0  0  0  0  0  0
   -0.8742   -9.6591   29.8214 N   0  0  0  0  0  0  0  0  0  0  0  0
   -1.7097  -10.9180   29.8535 C   0  0  0  0  0  0  0  0  0  0  0  0
   -2.6411  -12.1829   28.9156 C   0  0  0  0  0  0  0  0  0  0  0  0
   -2.3487  -13.8599   29.0308 C   0  0  0  0  0  0  0  0  0  0  0  0
   -2.0842  -14.7096   27.9737 C   0  0  0  0  0  0  0  0  0  0  0  0
   -2.2498  -14.0938   26.7485 C   0  0  0  0  0  0  0  0  0  0  0  0
   -2.6226  -12.7981   26.5004 C   0  0  0  0  0  0  0  0  0  0  0  0
   -2.7705  -11.9045   27.5370 C   0  0  0  0  0  0  0  0  0  0  0  0
   -0.2292   -6.5157   29.8249 H   0  0  0  0  0  0  0  0  0  0  0  0
    0.9419   -7.8594   29.8822 H   0  0  0  0  0  0  0  0  0  0  0  0
   -0.8715   -8.1393   32.9796 H   0  0  0  0  0  0  0  0  0  0  0  0
   -0.8347   -7.7947   35.7109 H   0  0  0  0  0  0  0  0  0  0  0  0
    2.5334   -4.5917   32.9847 H   0  0  0  0  0  0  0  0  0  0  0  0
    0.0740   -9.7022   29.4694 H   0  0  0  0  0  0  0  0  0  0  0  0
   -2.4378  -10.4308   30.4089 H   0  0  0  0  0  0  0  0  0  0  0  0
   -1.1279  -11.4118   30.6106 H   0  0  0  0  0  0  0  0  0  0  0  0
   -2.6750  -14.4050   29.9352 H   0  0  0  0  0  0  0  0  0  0  0  0
   -1.9687  -15.7782   28.0372 H   0  0  0  0  0  0  0  0  0  0  0  0
   -2.4615  -14.7248   25.9210 H   0  0  0  0  0  0  0  0  0  0  0  0
   -2.7819  -12.4200   25.5096 H   0  0  0  0  0  0  0  0  0  0  0  0
   -2.2427  -11.0586   27.1439 H   0  0  0  0  0  0  0  0  0  0  0  0
  1  2  2  0
  2  3  1  0
  3  4  1  0
  4  5  2  0
  5  6  1  0
  6  7  1  0
  7  8  2  0
  8  9  1  0
  9 10  2  0
 10 11  1  0
 11 12  2  0
  2 13  1  0
 13 14  1  0
 14 15  1  0
 15 16  2  0
 16 17  1  0
 17 18  2  0
 18 19  1  0
 19 20  2  0
 12  4  1  0
 20 15  1  0
 10  6  1  0
  3 21  1  0
  3 22  1  0
  5 23  1  0
  7 24  1  0
 11 25  1  0
 13 26  1  0
 14 27  1  0
 14 28  1  0
 16 29  1  0
 17 30  1  0
 18 31  1  0
 19 32  1  0
 20 33  1  0
M  END
>  <Energy>  (168) 
191.30577548748113

>  <compound_id>  (168) 
3218

>  <target_id>  (168) 
1

>  <reference_id>  (168) 
105

>  <inspiration_ids>  (168) 
[105, 116]

>  <energy_score>  (168) 
127.90901797551766

>  <distance_score>  (168) 
3.2662373289164215

>  <path>  (168) 
/opt/xchem-fragalysis-2/maxwin/BulkDock/SCRATCH/505734/C3218-P105/C3218-P105.minimised.mol

>  <scratch_subdir>  (168) 
/opt/xchem-fragalysis-2/maxwin/BulkDock/SCRATCH/505734/C3218-P105

>  <fragmenstein_runtime>  (168) 
6.039370536804199

>  <fragmenstein_outcome>  (168) 
too moved

>  <fragmenstein_mode>  (168) 
expansion

>  <fragmenstein_error>  (168) 


$$$$
C3218-P116
     RDKit          3D

 33 35  0  0  0  0  0  0  0  0999 V2000
    1.1008  -10.4312   28.3589 O   0  0  0  0  0  0  0  0  0  0  0  0
    0.6684  -10.5316   29.4798 C   0  0  0  0  0  0  0  0  0  0  0  0
   -0.3712   -9.4858   29.9588 C   0  0  0  0  0  0  0  0  0  0  0  0
   -0.3154   -7.9888   30.4760 C   0  0  0  0  0  0  0  0  0  0  0  0
   -1.5759   -7.5241   30.6359 C   0  0  0  0  0  0  0  0  0  0  0  0
   -2.0663   -8.0120   31.8404 N   0  0  0  0  0  0  0  0  0  0  0  0
   -3.0976   -8.8538   32.1180 C   0  0  0  0  0  0  0  0  0  0  0  0
   -2.7378   -9.6858   33.0544 N   0  0  0  0  0  0  0  0  0  0  0  0
   -1.4629   -9.4057   33.3778 N   0  0  0  0  0  0  0  0  0  0  0  0
   -1.1740   -8.2571   32.8292 C   0  0  0  0  0  0  0  0  0  0  0  0
    0.1018   -7.6735   32.7032 C   0  0  0  0  0  0  0  0  0  0  0  0
    0.5602   -7.5625   31.4992 N   0  0  0  0  0  0  0  0  0  0  0  0
    0.8912  -11.5456   30.4956 N   0  0  0  0  0  0  0  0  0  0  0  0
    1.6238  -12.7974   30.4448 C   0  0  0  0  0  0  0  0  0  0  0  0
    0.9439  -13.6094   29.3825 C   0  0  0  0  0  0  0  0  0  0  0  0
   -0.2196  -14.3036   29.6575 C   0  0  0  0  0  0  0  0  0  0  0  0
   -1.2476  -14.2403   28.7272 C   0  0  0  0  0  0  0  0  0  0  0  0
   -1.1423  -13.4111   27.6159 C   0  0  0  0  0  0  0  0  0  0  0  0
    0.1062  -12.9334   27.2660 C   0  0  0  0  0  0  0  0  0  0  0  0
    1.1827  -13.1798   28.0897 C   0  0  0  0  0  0  0  0  0  0  0  0
   -1.0518  -10.0583   30.5991 H   0  0  0  0  0  0  0  0  0  0  0  0
   -0.8813   -9.3554   29.0064 H   0  0  0  0  0  0  0  0  0  0  0  0
   -2.2459   -7.5099   29.7978 H   0  0  0  0  0  0  0  0  0  0  0  0
   -4.0575   -8.8602   31.6376 H   0  0  0  0  0  0  0  0  0  0  0  0
    0.6736   -7.3551   33.5869 H   0  0  0  0  0  0  0  0  0  0  0  0
    0.3008  -11.3510   31.2901 H   0  0  0  0  0  0  0  0  0  0  0  0
    1.5936  -13.3101   31.4048 H   0  0  0  0  0  0  0  0  0  0  0  0
    2.6553  -12.5606   30.1815 H   0  0  0  0  0  0  0  0  0  0  0  0
   -0.3731  -14.7728   30.6234 H   0  0  0  0  0  0  0  0  0  0  0  0
   -2.1575  -14.7943   28.9013 H   0  0  0  0  0  0  0  0  0  0  0  0
   -1.9717  -13.2520   26.9356 H   0  0  0  0  0  0  0  0  0  0  0  0
    0.2576  -12.3696   26.3537 H   0  0  0  0  0  0  0  0  0  0  0  0
    2.1355  -12.7326   27.8670 H   0  0  0  0  0  0  0  0  0  0  0  0
  1  2  2  0
  2  3  1  0
  3  4  1  0
  4  5  2  0
  5  6  1  0
  6  7  1  0
  7  8  2  0
  8  9  1  0
  9 10  2  0
 10 11  1  0
 11 12  2  0
  2 13  1  0
 13 14  1  0
 14 15  1  0
 15 16  2  0
 16 17  1  0
 17 18  2  0
 18 19  1  0
 19 20  2  0
 12  4  1  0
 20 15  1  0
 10  6  1  0
  3 21  1  0
  3 22  1  0
  5 23  1  0
  7 24  1  0
 11 25  1  0
 13 26  1  0
 14 27  1  0
 14 28  1  0
 16 29  1  0
 17 30  1  0
 18 31  1  0
 19 32  1  0
 20 33  1  0
M  END
>  <Energy>  (169) 
166.40080000291945

>  <compound_id>  (169) 
3218

>  <target_id>  (169) 
1

>  <reference_id>  (169) 
116

>  <inspiration_ids>  (169) 
[105, 116]

>  <energy_score>  (169) 
103.00404249095857

>  <distance_score>  (169) 
2.5954949967290606

>  <path>  (169) 
/opt/xchem-fragalysis-2/maxwin/BulkDock/SCRATCH/505734/C3218-P116/C3218-P116.minimised.mol

>  <scratch_subdir>  (169) 
/opt/xchem-fragalysis-2/maxwin/BulkDock/SCRATCH/505734/C3218-P116

>  <fragmenstein_runtime>  (169) 
8.414956092834473

>  <fragmenstein_outcome>  (169) 
too moved

>  <fragmenstein_mode>  (169) 
expansion

>  <fragmenstein_error>  (169) 


$$$$
C3221-P105
     RDKit          3D

 37 40  0  0  0  0  0  0  0  0999 V2000
    4.5384   -2.6871   34.8465 C   0  0  0  0  0  0  0  0  0  0  0  0
    4.0477   -3.9915   34.8178 C   0  0  0  0  0  0  0  0  0  0  0  0
    3.4488   -4.4879   33.6602 C   0  0  0  0  0  0  0  0  0  0  0  0
    3.3375   -3.6794   32.5241 C   0  0  0  0  0  0  0  0  0  0  0  0
    2.6069   -4.1504   31.3608 C   0  0  0  0  0  0  0  0  0  0  0  0
    2.3199   -5.3841   30.9935 N   0  0  0  0  0  0  0  0  0  0  0  0
    1.2777   -5.3247   30.1003 N   0  0  0  0  0  0  0  0  0  0  0  0
    0.9021   -4.0649   30.0402 C   0  0  0  0  0  0  0  0  0  0  0  0
   -0.4550   -3.4949   29.8542 C   0  0  0  0  0  0  0  0  0  0  0  0
   -1.3653   -3.7766   30.9922 N   0  0  0  0  0  0  0  0  0  0  0  0
   -0.7736   -3.7857   32.3282 C   0  0  0  0  0  0  0  0  0  0  0  0
   -0.5368   -5.1263   33.0011 C   0  0  0  0  0  0  0  0  0  0  0  0
   -0.2638   -5.1402   34.3303 C   0  0  0  0  0  0  0  0  0  0  0  0
   -0.2321   -6.2658   35.1347 N   0  0  0  0  0  0  0  0  0  0  0  0
   -0.5734   -7.4003   34.5871 C   0  0  0  0  0  0  0  0  0  0  0  0
   -0.8729   -7.4899   33.1946 C   0  0  0  0  0  0  0  0  0  0  0  0
   -1.3019   -8.5173   32.5026 N   0  0  0  0  0  0  0  0  0  0  0  0
   -1.3732   -8.1211   31.1938 N   0  0  0  0  0  0  0  0  0  0  0  0
   -0.9967   -6.8607   31.1513 C   0  0  0  0  0  0  0  0  0  0  0  0
   -0.7675   -6.3736   32.4081 N   0  0  0  0  0  0  0  0  0  0  0  0
    1.9213   -3.2967   30.5298 N   0  0  0  0  0  0  0  0  0  0  0  0
    3.8482   -2.3734   32.5618 C   0  0  0  0  0  0  0  0  0  0  0  0
    4.4416   -1.8783   33.7190 C   0  0  0  0  0  0  0  0  0  0  0  0
    5.0041   -2.3051   35.7523 H   0  0  0  0  0  0  0  0  0  0  0  0
    4.1236   -4.6212   35.7013 H   0  0  0  0  0  0  0  0  0  0  0  0
    3.0473   -5.4996   33.6576 H   0  0  0  0  0  0  0  0  0  0  0  0
   -0.3875   -2.4079   29.7237 H   0  0  0  0  0  0  0  0  0  0  0  0
   -0.8981   -3.8949   28.9389 H   0  0  0  0  0  0  0  0  0  0  0  0
   -2.0996   -3.0664   30.9511 H   0  0  0  0  0  0  0  0  0  0  0  0
   -1.5138   -3.2718   32.9599 H   0  0  0  0  0  0  0  0  0  0  0  0
    0.1065   -3.1402   32.4070 H   0  0  0  0  0  0  0  0  0  0  0  0
   -0.1228   -4.2046   34.8697 H   0  0  0  0  0  0  0  0  0  0  0  0
   -0.6044   -8.3003   35.2159 H   0  0  0  0  0  0  0  0  0  0  0  0
   -0.8967   -6.2840   30.2507 H   0  0  0  0  0  0  0  0  0  0  0  0
    1.8754   -2.2979   30.6508 H   0  0  0  0  0  0  0  0  0  0  0  0
    3.8089   -1.7204   31.6941 H   0  0  0  0  0  0  0  0  0  0  0  0
    4.8385   -0.8663   33.7431 H   0  0  0  0  0  0  0  0  0  0  0  0
  1  2  2  0
  2  3  1  0
  3  4  2  0
  4  5  1  0
  5  6  2  0
  6  7  1  0
  7  8  2  0
  8  9  1  0
  9 10  1  0
 10 11  1  0
 11 12  1  0
 12 13  2  0
 13 14  1  0
 14 15  2  0
 15 16  1  0
 16 17  2  0
 17 18  1  0
 18 19  2  0
 19 20  1  0
  8 21  1  0
  4 22  1  0
 22 23  2  0
 23  1  1  0
 21  5  1  0
 20 12  1  0
 20 16  1  0
  1 24  1  0
  2 25  1  0
  3 26  1  0
  9 27  1  0
  9 28  1  0
 10 29  1  0
 11 30  1  0
 11 31  1  0
 13 32  1  0
 15 33  1  0
 19 34  1  0
 21 35  1  0
 22 36  1  0
 23 37  1  0
M  END
>  <Energy>  (170) 
51.034871879840637

>  <compound_id>  (170) 
3221

>  <target_id>  (170) 
1

>  <reference_id>  (170) 
105

>  <inspiration_ids>  (170) 
[105, 132]

>  <energy_score>  (170) 
0.14189250368275452

>  <distance_score>  (170) 
1.0845407663963604

>  <path>  (170) 
/opt/xchem-fragalysis-2/maxwin/BulkDock/SCRATCH/505734/C3221-P105/C3221-P105.minimised.mol

>  <scratch_subdir>  (170) 
/opt/xchem-fragalysis-2/maxwin/BulkDock/SCRATCH/505734/C3221-P105

>  <fragmenstein_runtime>  (170) 
1.751659631729126

>  <fragmenstein_outcome>  (170) 
too moved

>  <fragmenstein_mode>  (170) 
expansion

>  <fragmenstein_error>  (170) 


$$$$
C3221-P132
     RDKit          3D

 37 40  0  0  0  0  0  0  0  0999 V2000
    4.5051   -2.6645   34.8872 C   0  0  0  0  0  0  0  0  0  0  0  0
    4.0179   -3.9700   34.8529 C   0  0  0  0  0  0  0  0  0  0  0  0
    3.4417   -4.4707   33.6858 C   0  0  0  0  0  0  0  0  0  0  0  0
    3.3502   -3.6654   32.5459 C   0  0  0  0  0  0  0  0  0  0  0  0
    2.6470   -4.1418   31.3684 C   0  0  0  0  0  0  0  0  0  0  0  0
    2.3827   -5.3775   30.9910 N   0  0  0  0  0  0  0  0  0  0  0  0
    1.3641   -5.3270   30.0700 N   0  0  0  0  0  0  0  0  0  0  0  0
    0.9759   -4.0715   30.0040 C   0  0  0  0  0  0  0  0  0  0  0  0
   -0.3797   -3.5158   29.7753 C   0  0  0  0  0  0  0  0  0  0  0  0
   -1.3142   -3.7796   30.8952 N   0  0  0  0  0  0  0  0  0  0  0  0
   -0.7636   -3.7805   32.2486 C   0  0  0  0  0  0  0  0  0  0  0  0
   -0.5391   -5.1117   32.9443 C   0  0  0  0  0  0  0  0  0  0  0  0
   -0.2929   -5.1112   34.2794 C   0  0  0  0  0  0  0  0  0  0  0  0
   -0.2751   -6.2288   35.0970 N   0  0  0  0  0  0  0  0  0  0  0  0
   -0.6106   -7.3674   34.5562 C   0  0  0  0  0  0  0  0  0  0  0  0
   -0.8713   -7.4734   33.1584 C   0  0  0  0  0  0  0  0  0  0  0  0
   -1.2546   -8.5166   32.4647 N   0  0  0  0  0  0  0  0  0  0  0  0
   -1.2776   -8.1384   31.1493 N   0  0  0  0  0  0  0  0  0  0  0  0
   -0.9147   -6.8746   31.1053 C   0  0  0  0  0  0  0  0  0  0  0  0
   -0.7495   -6.3660   32.3622 N   0  0  0  0  0  0  0  0  0  0  0  0
    1.9712   -3.2931   30.5249 N   0  0  0  0  0  0  0  0  0  0  0  0
    3.8563   -2.3578   32.5897 C   0  0  0  0  0  0  0  0  0  0  0  0
    4.4269   -1.8585   33.7563 C   0  0  0  0  0  0  0  0  0  0  0  0
    4.9528   -2.2791   35.8007 H   0  0  0  0  0  0  0  0  0  0  0  0
    4.0786   -4.5967   35.7399 H   0  0  0  0  0  0  0  0  0  0  0  0
    3.0424   -5.4829   33.6788 H   0  0  0  0  0  0  0  0  0  0  0  0
   -0.3159   -2.4315   29.6217 H   0  0  0  0  0  0  0  0  0  0  0  0
   -0.8007   -3.9395   28.8597 H   0  0  0  0  0  0  0  0  0  0  0  0
   -2.0462   -3.0699   30.8260 H   0  0  0  0  0  0  0  0  0  0  0  0
   -1.5271   -3.2680   32.8535 H   0  0  0  0  0  0  0  0  0  0  0  0
    0.1090   -3.1278   32.3497 H   0  0  0  0  0  0  0  0  0  0  0  0
   -0.1679   -4.1697   34.8125 H   0  0  0  0  0  0  0  0  0  0  0  0
   -0.6608   -8.2621   35.1915 H   0  0  0  0  0  0  0  0  0  0  0  0
   -0.7702   -6.3139   30.2007 H   0  0  0  0  0  0  0  0  0  0  0  0
    1.9110   -2.2951   30.6478 H   0  0  0  0  0  0  0  0  0  0  0  0
    3.8319   -1.7072   31.7197 H   0  0  0  0  0  0  0  0  0  0  0  0
    4.8207   -0.8454   33.7855 H   0  0  0  0  0  0  0  0  0  0  0  0
  1  2  2  0
  2  3  1  0
  3  4  2  0
  4  5  1  0
  5  6  2  0
  6  7  1  0
  7  8  2  0
  8  9  1  0
  9 10  1  0
 10 11  1  0
 11 12  1  0
 12 13  2  0
 13 14  1  0
 14 15  2  0
 15 16  1  0
 16 17  2  0
 17 18  1  0
 18 19  2  0
 19 20  1  0
  8 21  1  0
  4 22  1  0
 22 23  2  0
 23  1  1  0
 21  5  1  0
 20 12  1  0
 20 16  1  0
  1 24  1  0
  2 25  1  0
  3 26  1  0
  9 27  1  0
  9 28  1  0
 10 29  1  0
 11 30  1  0
 11 31  1  0
 13 32  1  0
 15 33  1  0
 19 34  1  0
 21 35  1  0
 22 36  1  0
 23 37  1  0
M  END
>  <Energy>  (171) 
51.172467488489268

>  <compound_id>  (171) 
3221

>  <target_id>  (171) 
1

>  <reference_id>  (171) 
132

>  <inspiration_ids>  (171) 
[105, 132]

>  <energy_score>  (171) 
0.27948811233011384

>  <distance_score>  (171) 
1.1023899815285765

>  <path>  (171) 
/opt/xchem-fragalysis-2/maxwin/BulkDock/SCRATCH/505734/C3221-P132/C3221-P132.minimised.mol

>  <scratch_subdir>  (171) 
/opt/xchem-fragalysis-2/maxwin/BulkDock/SCRATCH/505734/C3221-P132

>  <fragmenstein_runtime>  (171) 
1.7842669486999512

>  <fragmenstein_outcome>  (171) 
too moved

>  <fragmenstein_mode>  (171) 
expansion

>  <fragmenstein_error>  (171) 


$$$$
C3229-P105
     RDKit          3D

 26 28  0  0  0  0  0  0  0  0999 V2000
    0.6991   -4.9803   37.3261 O   0  0  0  0  0  0  0  0  0  0  0  0
    0.5726   -6.0136   36.8690 C   0  0  0  0  0  0  0  0  0  0  0  0
    0.6448   -7.3418   37.4850 N   0  0  0  0  0  0  0  0  0  0  0  0
    0.9719   -7.7145   38.7580 C   0  0  0  0  0  0  0  0  0  0  0  0
    1.1668   -9.0133   39.2697 C   0  0  0  0  0  0  0  0  0  0  0  0
    1.5006   -9.0037   40.5634 N   0  0  0  0  0  0  0  0  0  0  0  0
    1.4978   -7.6966   40.8792 N   0  0  0  0  0  0  0  0  0  0  0  0
    1.1922   -6.8845   39.8267 C   0  0  0  0  0  0  0  0  0  0  0  0
    0.2832   -6.5245   35.3098 N   0  0  0  0  0  0  0  0  0  0  0  0
    0.2947   -5.3195   33.8410 C   0  0  0  0  0  0  0  0  0  0  0  0
    0.4992   -5.4898   32.3105 C   0  0  0  0  0  0  0  0  0  0  0  0
    0.2370   -6.8068   32.0355 N   0  0  0  0  0  0  0  0  0  0  0  0
   -0.6490   -7.3653   31.1502 C   0  0  0  0  0  0  0  0  0  0  0  0
   -1.5864   -8.1186   31.6828 N   0  0  0  0  0  0  0  0  0  0  0  0
   -1.4002   -7.9556   33.0808 N   0  0  0  0  0  0  0  0  0  0  0  0
   -0.2379   -7.2201   33.2785 C   0  0  0  0  0  0  0  0  0  0  0  0
    0.0132   -5.9620   34.2141 C   0  0  0  0  0  0  0  0  0  0  0  0
    0.5642   -8.0500   36.7666 H   0  0  0  0  0  0  0  0  0  0  0  0
    1.0842   -9.9647   38.7603 H   0  0  0  0  0  0  0  0  0  0  0  0
    1.7176   -7.4304   41.8336 H   0  0  0  0  0  0  0  0  0  0  0  0
    1.1607   -5.8092   39.9335 H   0  0  0  0  0  0  0  0  0  0  0  0
    0.5894   -4.2089   34.1981 H   0  0  0  0  0  0  0  0  0  0  0  0
    0.6102   -4.7102   31.5702 H   0  0  0  0  0  0  0  0  0  0  0  0
   -0.5027   -7.1616   30.0828 H   0  0  0  0  0  0  0  0  0  0  0  0
   -1.4256   -8.8185   33.6346 H   0  0  0  0  0  0  0  0  0  0  0  0
   -1.2242   -5.7881   34.5855 H   0  0  0  0  0  0  0  0  0  0  0  0
  1  2  2  0
  2  3  1  0
  3  4  1  0
  4  5  1  0
  5  6  2  0
  6  7  1  0
  7  8  1  0
  2  9  1  0
  9 10  1  0
 10 11  2  0
 11 12  1  0
 12 13  1  0
 13 14  2  0
 14 15  1  0
 15 16  1  0
 16 17  2  0
  8  4  2  0
 17  9  1  0
 16 12  1  0
  3 18  1  0
  5 19  1  0
  7 20  1  0
  8 21  1  0
 10 22  1  0
 11 23  1  0
 13 24  1  0
 15 25  1  0
 17 26  1  0
M  END
>  <Energy>  (172) 
820.46258570620182

>  <compound_id>  (172) 
3229

>  <target_id>  (172) 
1

>  <reference_id>  (172) 
105

>  <inspiration_ids>  (172) 
[105, 145]

>  <energy_score>  (172) 
718.1855771784149

>  <distance_score>  (172) 
1.6968700770045386

>  <path>  (172) 
/opt/xchem-fragalysis-2/maxwin/BulkDock/SCRATCH/505734/C3229-P105/C3229-P105.minimised.mol

>  <scratch_subdir>  (172) 
/opt/xchem-fragalysis-2/maxwin/BulkDock/SCRATCH/505734/C3229-P105

>  <fragmenstein_runtime>  (172) 
9.43675708770752

>  <fragmenstein_outcome>  (172) 
too moved

>  <fragmenstein_mode>  (172) 
expansion

>  <fragmenstein_error>  (172) 


$$$$
C3229-P145
     RDKit          3D

 26 28  0  0  0  0  0  0  0  0999 V2000
    0.5955   -4.7832   38.1457 O   0  0  0  0  0  0  0  0  0  0  0  0
    0.5865   -5.8204   37.6831 C   0  0  0  0  0  0  0  0  0  0  0  0
    0.8764   -7.1298   38.2780 N   0  0  0  0  0  0  0  0  0  0  0  0
    1.3241   -7.4592   39.5268 C   0  0  0  0  0  0  0  0  0  0  0  0
    1.7431   -8.7065   40.0315 C   0  0  0  0  0  0  0  0  0  0  0  0
    2.1527   -8.6271   41.3021 N   0  0  0  0  0  0  0  0  0  0  0  0
    1.9537   -7.3376   41.6166 N   0  0  0  0  0  0  0  0  0  0  0  0
    1.4721   -6.5943   40.5814 C   0  0  0  0  0  0  0  0  0  0  0  0
    0.2882   -6.3589   36.1250 N   0  0  0  0  0  0  0  0  0  0  0  0
    0.0644   -5.1502   34.6799 C   0  0  0  0  0  0  0  0  0  0  0  0
    0.2315   -5.2446   33.1452 C   0  0  0  0  0  0  0  0  0  0  0  0
    0.1060   -6.5705   32.8301 N   0  0  0  0  0  0  0  0  0  0  0  0
   -0.7675   -7.1606   31.9533 C   0  0  0  0  0  0  0  0  0  0  0  0
   -1.6008   -8.0234   32.4830 N   0  0  0  0  0  0  0  0  0  0  0  0
   -1.3667   -7.9224   33.8820 N   0  0  0  0  0  0  0  0  0  0  0  0
   -0.2659   -7.0875   34.0783 C   0  0  0  0  0  0  0  0  0  0  0  0
   -0.1118   -5.8301   35.0473 C   0  0  0  0  0  0  0  0  0  0  0  0
    0.8535   -7.8381   37.5576 H   0  0  0  0  0  0  0  0  0  0  0  0
    1.7810   -9.6668   39.5372 H   0  0  0  0  0  0  0  0  0  0  0  0
    2.1768   -7.0320   42.5578 H   0  0  0  0  0  0  0  0  0  0  0  0
    1.2786   -5.5362   40.6879 H   0  0  0  0  0  0  0  0  0  0  0  0
    0.2150   -4.0147   35.0538 H   0  0  0  0  0  0  0  0  0  0  0  0
    0.1890   -4.4282   32.4379 H   0  0  0  0  0  0  0  0  0  0  0  0
   -0.6851   -6.8907   30.8904 H   0  0  0  0  0  0  0  0  0  0  0  0
   -1.2979   -8.8332   34.3562 H   0  0  0  0  0  0  0  0  0  0  0  0
   -1.3369   -5.8299   35.4852 H   0  0  0  0  0  0  0  0  0  0  0  0
  1  2  2  0
  2  3  1  0
  3  4  1  0
  4  5  1  0
  5  6  2  0
  6  7  1  0
  7  8  1  0
  2  9  1  0
  9 10  1  0
 10 11  2  0
 11 12  1  0
 12 13  1  0
 13 14  2  0
 14 15  1  0
 15 16  1  0
 16 17  2  0
  8  4  2  0
 17  9  1  0
 16 12  1  0
  3 18  1  0
  5 19  1  0
  7 20  1  0
  8 21  1  0
 10 22  1  0
 11 23  1  0
 13 24  1  0
 15 25  1  0
 17 26  1  0
M  END
>  <Energy>  (173) 
817.87620706593134

>  <compound_id>  (173) 
3229

>  <target_id>  (173) 
1

>  <reference_id>  (173) 
145

>  <inspiration_ids>  (173) 
[105, 145]

>  <energy_score>  (173) 
715.5991985381477

>  <distance_score>  (173) 
1.6876215330128592

>  <path>  (173) 
/opt/xchem-fragalysis-2/maxwin/BulkDock/SCRATCH/505734/C3229-P145/C3229-P145.minimised.mol

>  <scratch_subdir>  (173) 
/opt/xchem-fragalysis-2/maxwin/BulkDock/SCRATCH/505734/C3229-P145

>  <fragmenstein_runtime>  (173) 
9.580912590026855

>  <fragmenstein_outcome>  (173) 
too moved

>  <fragmenstein_mode>  (173) 
expansion

>  <fragmenstein_error>  (173) 


$$$$
C3230-P105
     RDKit          3D

 36 39  0  0  0  0  0  0  0  0999 V2000
   -1.3333   -3.6756   32.2768 C   0  0  0  0  0  0  0  0  0  0  0  0
   -0.3241   -2.7971   32.3336 C   0  0  0  0  0  0  0  0  0  0  0  0
   -0.0286   -1.6362   31.3527 C   0  0  0  0  0  0  0  0  0  0  0  0
   -0.0409   -1.9613   29.9301 N   0  0  0  0  0  0  0  0  0  0  0  0
    0.3675   -3.1588   29.3942 C   0  0  0  0  0  0  0  0  0  0  0  0
    1.6521   -4.1532   29.9849 S   0  0  0  0  0  0  0  0  0  0  0  0
    0.7828   -5.3932   30.8419 C   0  0  0  0  0  0  0  0  0  0  0  0
   -0.3663   -5.9752   30.4445 C   0  0  0  0  0  0  0  0  0  0  0  0
   -1.1179   -6.9000   31.1649 N   0  0  0  0  0  0  0  0  0  0  0  0
   -0.6597   -7.2828   32.3187 C   0  0  0  0  0  0  0  0  0  0  0  0
    0.5728   -6.7785   32.7886 C   0  0  0  0  0  0  0  0  0  0  0  0
    1.2130   -7.1132   33.8722 N   0  0  0  0  0  0  0  0  0  0  0  0
    2.3671   -6.3826   33.8652 N   0  0  0  0  0  0  0  0  0  0  0  0
    2.3662   -5.6138   32.7982 C   0  0  0  0  0  0  0  0  0  0  0  0
    1.2628   -5.8548   32.0542 N   0  0  0  0  0  0  0  0  0  0  0  0
   -0.2725   -3.3650   28.2805 N   0  0  0  0  0  0  0  0  0  0  0  0
   -0.9524   -2.2184   27.9891 N   0  0  0  0  0  0  0  0  0  0  0  0
   -0.6360   -1.2851   28.8662 C   0  0  0  0  0  0  0  0  0  0  0  0
   -0.8434    0.1417   28.5665 C   0  0  0  0  0  0  0  0  0  0  0  0
   -1.7891    0.5127   27.5930 C   0  0  0  0  0  0  0  0  0  0  0  0
   -1.9443    1.8416   27.1903 C   0  0  0  0  0  0  0  0  0  0  0  0
   -1.1066    2.7840   27.7506 C   0  0  0  0  0  0  0  0  0  0  0  0
   -0.1438    2.4751   28.6535 N   0  0  0  0  0  0  0  0  0  0  0  0
   -0.0364    1.1692   29.0307 C   0  0  0  0  0  0  0  0  0  0  0  0
   -1.4621   -4.3984   33.0758 H   0  0  0  0  0  0  0  0  0  0  0  0
   -2.0459   -3.6130   31.4613 H   0  0  0  0  0  0  0  0  0  0  0  0
    0.3425   -2.8392   33.1951 H   0  0  0  0  0  0  0  0  0  0  0  0
   -0.7499   -0.8299   31.5238 H   0  0  0  0  0  0  0  0  0  0  0  0
    0.9743   -1.2439   31.5572 H   0  0  0  0  0  0  0  0  0  0  0  0
   -0.7936   -5.6832   29.4940 H   0  0  0  0  0  0  0  0  0  0  0  0
   -1.2213   -8.0114   32.9250 H   0  0  0  0  0  0  0  0  0  0  0  0
    3.1401   -4.9080   32.5323 H   0  0  0  0  0  0  0  0  0  0  0  0
   -2.3953   -0.2577   27.1164 H   0  0  0  0  0  0  0  0  0  0  0  0
   -2.6971    2.1222   26.4616 H   0  0  0  0  0  0  0  0  0  0  0  0
   -1.1875    3.8357   27.4906 H   0  0  0  0  0  0  0  0  0  0  0  0
    0.7785    0.9808   29.7224 H   0  0  0  0  0  0  0  0  0  0  0  0
  1  2  2  0
  2  3  1  0
  3  4  1  0
  4  5  1  0
  5  6  1  0
  6  7  1  0
  7  8  2  0
  8  9  1  0
  9 10  2  0
 10 11  1  0
 11 12  2  0
 12 13  1  0
 13 14  2  0
 14 15  1  0
  5 16  2  0
 16 17  1  0
 17 18  2  0
 18 19  1  0
 19 20  2  0
 20 21  1  0
 21 22  2  0
 22 23  1  0
 23 24  2  0
 18  4  1  0
 24 19  1  0
 15  7  1  0
 15 11  1  0
  1 25  1  0
  1 26  1  0
  2 27  1  0
  3 28  1  0
  3 29  1  0
  8 30  1  0
 10 31  1  0
 14 32  1  0
 20 33  1  0
 21 34  1  0
 22 35  1  0
 24 36  1  0
M  END
>  <Energy>  (174) 
87.611951601432125

>  <compound_id>  (174) 
3230

>  <target_id>  (174) 
1

>  <reference_id>  (174) 
105

>  <inspiration_ids>  (174) 
[105, 147]

>  <energy_score>  (174) 
-13.687537015240991

>  <distance_score>  (174) 
2.6262790985049436

>  <path>  (174) 
/opt/xchem-fragalysis-2/maxwin/BulkDock/SCRATCH/505734/C3230-P105/C3230-P105.minimised.mol

>  <scratch_subdir>  (174) 
/opt/xchem-fragalysis-2/maxwin/BulkDock/SCRATCH/505734/C3230-P105

>  <fragmenstein_runtime>  (174) 
3.30661678314209

>  <fragmenstein_outcome>  (174) 
too moved

>  <fragmenstein_mode>  (174) 
expansion

>  <fragmenstein_error>  (174) 


$$$$
C3230-P147
     RDKit          3D

 36 39  0  0  0  0  0  0  0  0999 V2000
   -1.5831   -3.4959   32.7823 C   0  0  0  0  0  0  0  0  0  0  0  0
   -0.8140   -2.7419   31.9973 C   0  0  0  0  0  0  0  0  0  0  0  0
   -1.3188   -1.9360   30.7965 C   0  0  0  0  0  0  0  0  0  0  0  0
   -0.4001   -1.9913   29.6699 N   0  0  0  0  0  0  0  0  0  0  0  0
    0.3881   -3.0729   29.3590 C   0  0  0  0  0  0  0  0  0  0  0  0
   -0.1248   -4.7131   29.3726 S   0  0  0  0  0  0  0  0  0  0  0  0
    0.0989   -5.4676   30.9055 C   0  0  0  0  0  0  0  0  0  0  0  0
   -0.7594   -6.4158   31.3726 C   0  0  0  0  0  0  0  0  0  0  0  0
   -0.7337   -7.0069   32.6296 N   0  0  0  0  0  0  0  0  0  0  0  0
    0.2543   -6.6942   33.4124 C   0  0  0  0  0  0  0  0  0  0  0  0
    1.2778   -5.8309   32.9450 C   0  0  0  0  0  0  0  0  0  0  0  0
    2.3972   -5.5260   33.5322 N   0  0  0  0  0  0  0  0  0  0  0  0
    3.0736   -4.7181   32.6551 N   0  0  0  0  0  0  0  0  0  0  0  0
    2.3454   -4.5649   31.5713 C   0  0  0  0  0  0  0  0  0  0  0  0
    1.1880   -5.2427   31.7122 N   0  0  0  0  0  0  0  0  0  0  0  0
    1.4249   -2.6562   28.6810 N   0  0  0  0  0  0  0  0  0  0  0  0
    1.2310   -1.3283   28.4030 N   0  0  0  0  0  0  0  0  0  0  0  0
    0.0499   -0.9574   28.8616 C   0  0  0  0  0  0  0  0  0  0  0  0
   -0.5771    0.3117   28.4864 C   0  0  0  0  0  0  0  0  0  0  0  0
   -1.6632    0.3696   27.6108 C   0  0  0  0  0  0  0  0  0  0  0  0
   -2.1312    1.6038   27.1385 C   0  0  0  0  0  0  0  0  0  0  0  0
   -1.4855    2.7558   27.5490 C   0  0  0  0  0  0  0  0  0  0  0  0
   -0.4064    2.7443   28.3608 N   0  0  0  0  0  0  0  0  0  0  0  0
    0.0278    1.5283   28.7889 C   0  0  0  0  0  0  0  0  0  0  0  0
   -1.2018   -4.0061   33.6611 H   0  0  0  0  0  0  0  0  0  0  0  0
   -2.6493   -3.4046   32.6558 H   0  0  0  0  0  0  0  0  0  0  0  0
    0.2406   -2.6317   32.2461 H   0  0  0  0  0  0  0  0  0  0  0  0
   -2.2802   -2.3120   30.4387 H   0  0  0  0  0  0  0  0  0  0  0  0
   -1.4227   -0.8857   31.0876 H   0  0  0  0  0  0  0  0  0  0  0  0
   -1.5651   -6.7941   30.7594 H   0  0  0  0  0  0  0  0  0  0  0  0
    0.3169   -7.1234   34.4250 H   0  0  0  0  0  0  0  0  0  0  0  0
    2.6411   -4.0012   30.6974 H   0  0  0  0  0  0  0  0  0  0  0  0
   -2.1136   -0.5502   27.2414 H   0  0  0  0  0  0  0  0  0  0  0  0
   -2.9776    1.6590   26.4619 H   0  0  0  0  0  0  0  0  0  0  0  0
   -1.8233    3.7368   27.2265 H   0  0  0  0  0  0  0  0  0  0  0  0
    0.9321    1.5650   29.3919 H   0  0  0  0  0  0  0  0  0  0  0  0
  1  2  2  0
  2  3  1  0
  3  4  1  0
  4  5  1  0
  5  6  1  0
  6  7  1  0
  7  8  2  0
  8  9  1  0
  9 10  2  0
 10 11  1  0
 11 12  2  0
 12 13  1  0
 13 14  2  0
 14 15  1  0
  5 16  2  0
 16 17  1  0
 17 18  2  0
 18 19  1  0
 19 20  2  0
 20 21  1  0
 21 22  2  0
 22 23  1  0
 23 24  2  0
 18  4  1  0
 24 19  1  0
 15  7  1  0
 15 11  1  0
  1 25  1  0
  1 26  1  0
  2 27  1  0
  3 28  1  0
  3 29  1  0
  8 30  1  0
 10 31  1  0
 14 32  1  0
 20 33  1  0
 21 34  1  0
 22 35  1  0
 24 36  1  0
M  END
>  <Energy>  (175) 
94.696054763133603

>  <compound_id>  (175) 
3230

>  <target_id>  (175) 
1

>  <reference_id>  (175) 
147

>  <inspiration_ids>  (175) 
[105, 147]

>  <energy_score>  (175) 
-6.603433853539059

>  <distance_score>  (175) 
2.6735100234109686

>  <path>  (175) 
/opt/xchem-fragalysis-2/maxwin/BulkDock/SCRATCH/505734/C3230-P147/C3230-P147.minimised.mol

>  <scratch_subdir>  (175) 
/opt/xchem-fragalysis-2/maxwin/BulkDock/SCRATCH/505734/C3230-P147

>  <fragmenstein_runtime>  (175) 
4.290869235992432

>  <fragmenstein_outcome>  (175) 
too moved

>  <fragmenstein_mode>  (175) 
expansion

>  <fragmenstein_error>  (175) 


$$$$
C3230-P105
     RDKit          2D

  0  0  0  0  0  0  0  0  0  0999 V2000
M  END
>  <compound_id>  (176) 
3230

>  <target_id>  (176) 
1

>  <reference_id>  (176) 
105

>  <inspiration_ids>  (176) 
[105, 148]

>  <energy_score>  (176) 
nan

>  <distance_score>  (176) 
nan

>  <path>  (176) 
/opt/xchem-fragalysis-2/maxwin/BulkDock/SCRATCH/505734/C3230-P105/C3230-P105.minimised.mol

>  <scratch_subdir>  (176) 
/opt/xchem-fragalysis-2/maxwin/BulkDock/SCRATCH/505734/C3230-P105

>  <fragmenstein_runtime>  (176) 
5.534723281860352

>  <fragmenstein_outcome>  (176) 
crashed

>  <fragmenstein_mode>  (176) 
expansion

>  <fragmenstein_error>  (176) 
PoisonError: None has poison atoms [1, 0, 2, 1, 0, 2, 1, 0, 2, 1, 0, 2, 1, 0, 2, 1, 0, 2, 1, 0, 2, 1, 0, 2, 1, 0, 2, 1, 0, 2, 1, 0, 2, 1, 0, 2, 1, 0, 2, 1, 0, 2, 1, 0, 2, 1, 0, 2, 1, 0, 2, 1, 0, 2, 1, 0, 2, 0, 1, 2, 0, 1, 2, 0, 1, 2, 0, 1, 2, 0, 1, 2, 0, 1, 2, 0, 1, 2, 1, 0, 2, 1, 0, 2, 1, 0, 2, 1, 0, 2, 1, 0, 2, 1, 0, 2, 1, 0, 2, 1, 0, 2, 1, 0, 2, 1, 0, 2, 1, 0, 2, 1, 0, 2, 1, 0, 2, 1, 0, 2, 1, 0, 2, 1, 0, 2, 1, 0, 2, 1, 0, 2, 1, 0, 2, 1, 0, 2, 1, 0, 2, 13, 12, 11, 9, 10, 13, 9, 10, 13, 9, 12, 11, 14, 13, 12, 10, 14, 13, 5, 14, 13, 5, 6, 14, 5, 6, 14, 13, 12, 11, 7, 10, 13, 7, 10, 13, 6, 7, 10, 14, 13, 12, 10, 14, 13, 5, 14, 13, 5, 6, 7, 5, 6, 14, 5, 6, 14, 9, 12, 11, 6, 7, 10, 7, 9, 10, 7, 9, 10, 5, 6, 14, 5, 6, 14, 5, 6, 7, 13, 12, 11, 9, 10, 13, 7, 10, 13, 9, 10, 13, 7, 9, 10, 7, 10, 13, 7, 9, 10, 6, 7, 10, 9, 12, 11, 5, 6, 7, 13, 12, 11, 9, 10, 13, 7, 10, 13, 9, 10, 13, 7, 9, 10, 7, 10, 13, 7, 9, 10, 9, 12, 11, 14, 13, 12, 10, 14, 13, 5, 14, 13]

$$$$
C3231-P105
     RDKit          3D

 27 29  0  0  0  0  0  0  0  0999 V2000
    2.6448   -6.2219   36.4748 C   0  0  0  0  0  0  0  0  0  0  0  0
    3.8609   -6.3918   37.0243 C   0  0  0  0  0  0  0  0  0  0  0  0
    4.3348   -7.6612   37.2511 N   0  0  0  0  0  0  0  0  0  0  0  0
    5.3685   -8.1539   37.9943 C   0  0  0  0  0  0  0  0  0  0  0  0
    5.3699   -9.4599   38.1441 N   0  0  0  0  0  0  0  0  0  0  0  0
    4.2635   -9.8781   37.3823 N   0  0  0  0  0  0  0  0  0  0  0  0
    3.5708   -8.7765   36.9287 C   0  0  0  0  0  0  0  0  0  0  0  0
    2.3497   -8.6090   36.3813 C   0  0  0  0  0  0  0  0  0  0  0  0
    1.8417   -7.3158   36.1031 N   0  0  0  0  0  0  0  0  0  0  0  0
    0.4365   -7.1098   35.7410 C   0  0  0  0  0  0  0  0  0  0  0  0
    0.2110   -6.9200   34.2684 C   0  0  0  0  0  0  0  0  0  0  0  0
    1.0308   -6.1149   33.4766 C   0  0  0  0  0  0  0  0  0  0  0  0
    0.7406   -5.9919   32.1287 C   0  0  0  0  0  0  0  0  0  0  0  0
   -0.2950   -6.6082   31.5221 N   0  0  0  0  0  0  0  0  0  0  0  0
   -1.0835   -7.3691   32.3063 C   0  0  0  0  0  0  0  0  0  0  0  0
   -0.8936   -7.5247   33.6661 C   0  0  0  0  0  0  0  0  0  0  0  0
    2.2127   -5.2384   36.3204 H   0  0  0  0  0  0  0  0  0  0  0  0
    4.4942   -5.5774   37.3520 H   0  0  0  0  0  0  0  0  0  0  0  0
    6.0838   -7.4445   38.4354 H   0  0  0  0  0  0  0  0  0  0  0  0
    3.7240  -10.6810   37.6944 H   0  0  0  0  0  0  0  0  0  0  0  0
    1.6779   -9.4342   36.1791 H   0  0  0  0  0  0  0  0  0  0  0  0
   -0.1561   -7.9611   36.1026 H   0  0  0  0  0  0  0  0  0  0  0  0
    0.0331   -6.2328   36.2653 H   0  0  0  0  0  0  0  0  0  0  0  0
    1.8899   -5.5949   33.8833 H   0  0  0  0  0  0  0  0  0  0  0  0
    1.3580   -5.3773   31.4798 H   0  0  0  0  0  0  0  0  0  0  0  0
   -1.9087   -7.8625   31.8031 H   0  0  0  0  0  0  0  0  0  0  0  0
   -1.5855   -8.1337   34.2364 H   0  0  0  0  0  0  0  0  0  0  0  0
  1  2  2  0
  2  3  1  0
  3  4  1  0
  4  5  2  0
  5  6  1  0
  6  7  1  0
  7  8  2  0
  8  9  1  0
  9 10  1  0
 10 11  1  0
 11 12  2  0
 12 13  1  0
 13 14  2  0
 14 15  1  0
 15 16  2  0
  9  1  1  0
 16 11  1  0
  7  3  1  0
  1 17  1  0
  2 18  1  0
  4 19  1  0
  6 20  1  0
  8 21  1  0
 10 22  1  0
 10 23  1  0
 12 24  1  0
 13 25  1  0
 15 26  1  0
 16 27  1  0
M  END
>  <Energy>  (177) 
103.1594918516474

>  <compound_id>  (177) 
3231

>  <target_id>  (177) 
1

>  <reference_id>  (177) 
105

>  <inspiration_ids>  (177) 
[105, 149]

>  <energy_score>  (177) 
-18.320085765474914

>  <distance_score>  (177) 
1.5240671539863146

>  <path>  (177) 
/opt/xchem-fragalysis-2/maxwin/BulkDock/SCRATCH/505734/C3231-P105/C3231-P105.minimised.mol

>  <scratch_subdir>  (177) 
/opt/xchem-fragalysis-2/maxwin/BulkDock/SCRATCH/505734/C3231-P105

>  <fragmenstein_runtime>  (177) 
1.8916575908660889

>  <fragmenstein_outcome>  (177) 
too moved

>  <fragmenstein_mode>  (177) 
expansion

>  <fragmenstein_error>  (177) 


$$$$
C3231-P149
     RDKit          3D

 27 29  0  0  0  0  0  0  0  0999 V2000
    1.4812   -7.4960   37.0833 C   0  0  0  0  0  0  0  0  0  0  0  0
    2.1595   -8.2294   37.9822 C   0  0  0  0  0  0  0  0  0  0  0  0
    3.4862   -8.5079   37.7709 N   0  0  0  0  0  0  0  0  0  0  0  0
    4.4651   -9.0569   38.5448 C   0  0  0  0  0  0  0  0  0  0  0  0
    5.6668   -9.0360   38.0113 N   0  0  0  0  0  0  0  0  0  0  0  0
    5.4477   -8.4752   36.7404 N   0  0  0  0  0  0  0  0  0  0  0  0
    4.1382   -8.0658   36.6259 C   0  0  0  0  0  0  0  0  0  0  0  0
    3.4640   -7.3170   35.7279 C   0  0  0  0  0  0  0  0  0  0  0  0
    2.0950   -6.9983   35.9193 N   0  0  0  0  0  0  0  0  0  0  0  0
    1.4412   -5.9274   35.1702 C   0  0  0  0  0  0  0  0  0  0  0  0
    0.6146   -6.4096   34.0133 C   0  0  0  0  0  0  0  0  0  0  0  0
    0.8269   -5.8314   32.7607 C   0  0  0  0  0  0  0  0  0  0  0  0
    0.0429   -6.2368   31.6984 C   0  0  0  0  0  0  0  0  0  0  0  0
   -0.9313   -7.1617   31.7934 N   0  0  0  0  0  0  0  0  0  0  0  0
   -1.1415   -7.6943   33.0170 C   0  0  0  0  0  0  0  0  0  0  0  0
   -0.4090   -7.3528   34.1432 C   0  0  0  0  0  0  0  0  0  0  0  0
    0.4356   -7.2423   37.2251 H   0  0  0  0  0  0  0  0  0  0  0  0
    1.7187   -8.6232   38.8894 H   0  0  0  0  0  0  0  0  0  0  0  0
    4.1975   -9.4348   39.5422 H   0  0  0  0  0  0  0  0  0  0  0  0
    6.1755   -7.9297   36.2906 H   0  0  0  0  0  0  0  0  0  0  0  0
    3.9288   -6.8943   34.8467 H   0  0  0  0  0  0  0  0  0  0  0  0
    0.7900   -5.3375   35.8303 H   0  0  0  0  0  0  0  0  0  0  0  0
    2.2034   -5.2169   34.8225 H   0  0  0  0  0  0  0  0  0  0  0  0
    1.5863   -5.0720   32.6038 H   0  0  0  0  0  0  0  0  0  0  0  0
    0.1795   -5.8099   30.7094 H   0  0  0  0  0  0  0  0  0  0  0  0
   -1.9374   -8.4322   33.0744 H   0  0  0  0  0  0  0  0  0  0  0  0
   -0.6300   -7.8389   35.0889 H   0  0  0  0  0  0  0  0  0  0  0  0
  1  2  2  0
  2  3  1  0
  3  4  1  0
  4  5  2  0
  5  6  1  0
  6  7  1  0
  7  8  2  0
  8  9  1  0
  9 10  1  0
 10 11  1  0
 11 12  2  0
 12 13  1  0
 13 14  2  0
 14 15  1  0
 15 16  2  0
  9  1  1  0
 16 11  1  0
  7  3  1  0
  1 17  1  0
  2 18  1  0
  4 19  1  0
  6 20  1  0
  8 21  1  0
 10 22  1  0
 10 23  1  0
 12 24  1  0
 13 25  1  0
 15 26  1  0
 16 27  1  0
M  END
>  <Energy>  (178) 
103.56241577755662

>  <compound_id>  (178) 
3231

>  <target_id>  (178) 
1

>  <reference_id>  (178) 
149

>  <inspiration_ids>  (178) 
[105, 149]

>  <energy_score>  (178) 
-17.917161839565495

>  <distance_score>  (178) 
1.625482379416429

>  <path>  (178) 
/opt/xchem-fragalysis-2/maxwin/BulkDock/SCRATCH/505734/C3231-P149/C3231-P149.minimised.mol

>  <scratch_subdir>  (178) 
/opt/xchem-fragalysis-2/maxwin/BulkDock/SCRATCH/505734/C3231-P149

>  <fragmenstein_runtime>  (178) 
1.8816168308258057

>  <fragmenstein_outcome>  (178) 
too moved

>  <fragmenstein_mode>  (178) 
expansion

>  <fragmenstein_error>  (178) 


$$$$
C3231-P105
     RDKit          3D

 27 29  0  0  0  0  0  0  0  0999 V2000
   -0.6421   -5.1746   37.3369 C   0  0  0  0  0  0  0  0  0  0  0  0
   -1.2454   -4.7828   38.4750 C   0  0  0  0  0  0  0  0  0  0  0  0
   -1.0789   -5.5237   39.6314 N   0  0  0  0  0  0  0  0  0  0  0  0
   -1.6399   -5.4887   40.8799 C   0  0  0  0  0  0  0  0  0  0  0  0
   -1.2792   -6.4708   41.6760 N   0  0  0  0  0  0  0  0  0  0  0  0
   -0.3582   -7.1897   40.9010 N   0  0  0  0  0  0  0  0  0  0  0  0
   -0.2956   -6.6676   39.6336 C   0  0  0  0  0  0  0  0  0  0  0  0
    0.2950   -7.0684   38.4967 C   0  0  0  0  0  0  0  0  0  0  0  0
    0.1462   -6.3432   37.2916 N   0  0  0  0  0  0  0  0  0  0  0  0
    1.0720   -6.5970   36.1871 C   0  0  0  0  0  0  0  0  0  0  0  0
    0.4355   -6.5698   34.8199 C   0  0  0  0  0  0  0  0  0  0  0  0
    0.9690   -5.7615   33.8118 C   0  0  0  0  0  0  0  0  0  0  0  0
    0.4358   -5.8463   32.5361 C   0  0  0  0  0  0  0  0  0  0  0  0
   -0.5704   -6.6773   32.1971 N   0  0  0  0  0  0  0  0  0  0  0  0
   -1.0752   -7.4460   33.1863 C   0  0  0  0  0  0  0  0  0  0  0  0
   -0.6274   -7.4138   34.4973 C   0  0  0  0  0  0  0  0  0  0  0  0
   -0.7288   -4.6161   36.4104 H   0  0  0  0  0  0  0  0  0  0  0  0
   -1.8706   -3.9045   38.5640 H   0  0  0  0  0  0  0  0  0  0  0  0
   -2.3575   -4.6871   41.1080 H   0  0  0  0  0  0  0  0  0  0  0  0
   -0.2573   -8.1922   41.0271 H   0  0  0  0  0  0  0  0  0  0  0  0
    0.9124   -7.9574   38.4465 H   0  0  0  0  0  0  0  0  0  0  0  0
    1.8821   -5.8578   36.2414 H   0  0  0  0  0  0  0  0  0  0  0  0
    1.5534   -7.5784   36.2963 H   0  0  0  0  0  0  0  0  0  0  0  0
    1.7942   -5.0834   34.0045 H   0  0  0  0  0  0  0  0  0  0  0  0
    0.8244   -5.2352   31.7264 H   0  0  0  0  0  0  0  0  0  0  0  0
   -1.8675   -8.1260   32.8870 H   0  0  0  0  0  0  0  0  0  0  0  0
   -1.0686   -8.0667   35.2445 H   0  0  0  0  0  0  0  0  0  0  0  0
  1  2  2  0
  2  3  1  0
  3  4  1  0
  4  5  2  0
  5  6  1  0
  6  7  1  0
  7  8  2  0
  8  9  1  0
  9 10  1  0
 10 11  1  0
 11 12  2  0
 12 13  1  0
 13 14  2  0
 14 15  1  0
 15 16  2  0
  9  1  1  0
 16 11  1  0
  7  3  1  0
  1 17  1  0
  2 18  1  0
  4 19  1  0
  6 20  1  0
  8 21  1  0
 10 22  1  0
 10 23  1  0
 12 24  1  0
 13 25  1  0
 15 26  1  0
 16 27  1  0
M  END
>  <Energy>  (179) 
101.90212870954697

>  <compound_id>  (179) 
3231

>  <target_id>  (179) 
1

>  <reference_id>  (179) 
105

>  <inspiration_ids>  (179) 
[105, 150]

>  <energy_score>  (179) 
-25.237452551627655

>  <distance_score>  (179) 
1.3732489958188667

>  <path>  (179) 
/opt/xchem-fragalysis-2/maxwin/BulkDock/SCRATCH/505734/C3231-P105/C3231-P105.minimised.mol

>  <scratch_subdir>  (179) 
/opt/xchem-fragalysis-2/maxwin/BulkDock/SCRATCH/505734/C3231-P105

>  <fragmenstein_runtime>  (179) 
5.38127589225769

>  <fragmenstein_outcome>  (179) 
too moved

>  <fragmenstein_mode>  (179) 
expansion

>  <fragmenstein_error>  (179) 


$$$$
C3231-P150
     RDKit          3D

 27 29  0  0  0  0  0  0  0  0999 V2000
   -0.7150   -5.1623   37.3508 C   0  0  0  0  0  0  0  0  0  0  0  0
   -1.3316   -4.8012   38.4927 C   0  0  0  0  0  0  0  0  0  0  0  0
   -1.1654   -5.5646   39.6352 N   0  0  0  0  0  0  0  0  0  0  0  0
   -1.7436   -5.5720   40.8758 C   0  0  0  0  0  0  0  0  0  0  0  0
   -1.3864   -6.5748   41.6479 N   0  0  0  0  0  0  0  0  0  0  0  0
   -0.4469   -7.2649   40.8661 N   0  0  0  0  0  0  0  0  0  0  0  0
   -0.3746   -6.7029   39.6150 C   0  0  0  0  0  0  0  0  0  0  0  0
    0.2247   -7.0757   38.4736 C   0  0  0  0  0  0  0  0  0  0  0  0
    0.0852   -6.3209   37.2880 N   0  0  0  0  0  0  0  0  0  0  0  0
    1.0041   -6.5614   36.1775 C   0  0  0  0  0  0  0  0  0  0  0  0
    0.3565   -6.5525   34.8164 C   0  0  0  0  0  0  0  0  0  0  0  0
    0.8416   -5.7088   33.8132 C   0  0  0  0  0  0  0  0  0  0  0  0
    0.2990   -5.8035   32.5425 C   0  0  0  0  0  0  0  0  0  0  0  0
   -0.6674   -6.6796   32.2006 N   0  0  0  0  0  0  0  0  0  0  0  0
   -1.1335   -7.4766   33.1896 C   0  0  0  0  0  0  0  0  0  0  0  0
   -0.6730   -7.4383   34.4965 C   0  0  0  0  0  0  0  0  0  0  0  0
   -0.8056   -4.5906   36.4325 H   0  0  0  0  0  0  0  0  0  0  0  0
   -1.9677   -3.9321   38.5925 H   0  0  0  0  0  0  0  0  0  0  0  0
   -2.4727   -4.7849   41.1170 H   0  0  0  0  0  0  0  0  0  0  0  0
   -0.3848   -8.2763   40.9309 H   0  0  0  0  0  0  0  0  0  0  0  0
    0.8309   -7.9710   38.4017 H   0  0  0  0  0  0  0  0  0  0  0  0
    1.8001   -5.8062   36.2214 H   0  0  0  0  0  0  0  0  0  0  0  0
    1.5098   -7.5305   36.2859 H   0  0  0  0  0  0  0  0  0  0  0  0
    1.6317   -4.9911   34.0086 H   0  0  0  0  0  0  0  0  0  0  0  0
    0.6452   -5.1594   31.7393 H   0  0  0  0  0  0  0  0  0  0  0  0
   -1.9061   -8.1832   32.8973 H   0  0  0  0  0  0  0  0  0  0  0  0
   -1.0815   -8.1189   35.2401 H   0  0  0  0  0  0  0  0  0  0  0  0
  1  2  2  0
  2  3  1  0
  3  4  1  0
  4  5  2  0
  5  6  1  0
  6  7  1  0
  7  8  2  0
  8  9  1  0
  9 10  1  0
 10 11  1  0
 11 12  2  0
 12 13  1  0
 13 14  2  0
 14 15  1  0
 15 16  2  0
  9  1  1  0
 16 11  1  0
  7  3  1  0
  1 17  1  0
  2 18  1  0
  4 19  1  0
  6 20  1  0
  8 21  1  0
 10 22  1  0
 10 23  1  0
 12 24  1  0
 13 25  1  0
 15 26  1  0
 16 27  1  0
M  END
>  <Energy>  (180) 
101.86693318006246

>  <compound_id>  (180) 
3231

>  <target_id>  (180) 
1

>  <reference_id>  (180) 
150

>  <inspiration_ids>  (180) 
[105, 150]

>  <energy_score>  (180) 
-25.272648081112152

>  <distance_score>  (180) 
1.3647278749258074

>  <path>  (180) 
/opt/xchem-fragalysis-2/maxwin/BulkDock/SCRATCH/505734/C3231-P150/C3231-P150.minimised.mol

>  <scratch_subdir>  (180) 
/opt/xchem-fragalysis-2/maxwin/BulkDock/SCRATCH/505734/C3231-P150

>  <fragmenstein_runtime>  (180) 
5.5484302043914795

>  <fragmenstein_outcome>  (180) 
too moved

>  <fragmenstein_mode>  (180) 
expansion

>  <fragmenstein_error>  (180) 


$$$$
C3232-P105
     RDKit          3D

 29 32  0  0  0  0  0  0  0  0999 V2000
    3.2696   -9.3083   36.9633 O   0  0  0  0  0  0  0  0  0  0  0  0
    2.4061   -8.4490   37.1090 C   0  0  0  0  0  0  0  0  0  0  0  0
    1.8418   -7.8062   36.0155 N   0  0  0  0  0  0  0  0  0  0  0  0
    0.7286   -6.8442   36.0296 C   0  0  0  0  0  0  0  0  0  0  0  0
    1.1023   -5.5907   35.1931 C   0  0  0  0  0  0  0  0  0  0  0  0
    1.2138   -5.8666   33.6950 C   0  0  0  0  0  0  0  0  0  0  0  0
    0.1149   -6.6514   33.1993 N   0  0  0  0  0  0  0  0  0  0  0  0
   -0.2714   -6.8346   31.9116 C   0  0  0  0  0  0  0  0  0  0  0  0
   -1.2876   -7.6648   31.8844 N   0  0  0  0  0  0  0  0  0  0  0  0
   -1.5697   -8.0172   33.1883 N   0  0  0  0  0  0  0  0  0  0  0  0
   -0.7057   -7.4130   33.9785 C   0  0  0  0  0  0  0  0  0  0  0  0
   -0.6012   -7.4504   35.4732 C   0  0  0  0  0  0  0  0  0  0  0  0
    0.5172   -6.3635   37.4028 N   0  0  0  0  0  0  0  0  0  0  0  0
    0.9732   -7.0316   38.4847 C   0  0  0  0  0  0  0  0  0  0  0  0
    0.5844   -6.8321   39.8273 C   0  0  0  0  0  0  0  0  0  0  0  0
    1.2367   -7.7048   40.6787 C   0  0  0  0  0  0  0  0  0  0  0  0
    2.3277   -8.7253   39.8430 S   0  0  0  0  0  0  0  0  0  0  0  0
    1.8961   -8.0238   38.3623 C   0  0  0  0  0  0  0  0  0  0  0  0
    2.1253   -8.2118   35.1415 H   0  0  0  0  0  0  0  0  0  0  0  0
    2.0466   -5.1582   35.5490 H   0  0  0  0  0  0  0  0  0  0  0  0
    0.3358   -4.8168   35.3448 H   0  0  0  0  0  0  0  0  0  0  0  0
    2.1298   -6.4247   33.4713 H   0  0  0  0  0  0  0  0  0  0  0  0
    1.2406   -4.9251   33.1361 H   0  0  0  0  0  0  0  0  0  0  0  0
    0.1980   -6.3702   31.0554 H   0  0  0  0  0  0  0  0  0  0  0  0
   -1.4509   -6.8720   35.8575 H   0  0  0  0  0  0  0  0  0  0  0  0
   -0.7230   -8.4703   35.8466 H   0  0  0  0  0  0  0  0  0  0  0  0
   -0.2421   -5.6943   37.5136 H   0  0  0  0  0  0  0  0  0  0  0  0
   -0.1381   -6.1035   40.1724 H   0  0  0  0  0  0  0  0  0  0  0  0
    1.1319   -7.7853   41.7521 H   0  0  0  0  0  0  0  0  0  0  0  0
  1  2  2  0
  2  3  1  0
  3  4  1  0
  4  5  1  0
  5  6  1  0
  6  7  1  0
  7  8  1  0
  8  9  2  0
  9 10  1  0
 10 11  2  0
 11 12  1  0
  4 13  1  0
 13 14  1  0
 14 15  1  0
 15 16  2  0
 16 17  1  0
 17 18  1  0
 18  2  1  0
 12  4  1  0
 18 14  2  0
 11  7  1  0
  3 19  1  0
  5 20  1  0
  5 21  1  0
  6 22  1  0
  6 23  1  0
  8 24  1  0
 12 25  1  0
 12 26  1  0
 13 27  1  0
 15 28  1  0
 16 29  1  0
M  END
>  <Energy>  (181) 
-65.899741263336082

>  <compound_id>  (181) 
3232

>  <target_id>  (181) 
1

>  <reference_id>  (181) 
105

>  <inspiration_ids>  (181) 
[105, 152]

>  <energy_score>  (181) 
-50.58157408338563

>  <distance_score>  (181) 
1.4983811235981095

>  <path>  (181) 
/opt/xchem-fragalysis-2/maxwin/BulkDock/SCRATCH/505734/C3232-P105/C3232-P105.minimised.mol

>  <scratch_subdir>  (181) 
/opt/xchem-fragalysis-2/maxwin/BulkDock/SCRATCH/505734/C3232-P105

>  <fragmenstein_runtime>  (181) 
1.3346092700958252

>  <fragmenstein_outcome>  (181) 
too moved

>  <fragmenstein_mode>  (181) 
expansion

>  <fragmenstein_error>  (181) 


$$$$
C3232-P152
     RDKit          3D

 29 32  0  0  0  0  0  0  0  0999 V2000
    3.6623   -8.5868   36.9443 O   0  0  0  0  0  0  0  0  0  0  0  0
    2.6079   -7.9844   37.1174 C   0  0  0  0  0  0  0  0  0  0  0  0
    1.9550   -7.3642   36.0565 N   0  0  0  0  0  0  0  0  0  0  0  0
    0.6584   -6.6656   36.1039 C   0  0  0  0  0  0  0  0  0  0  0  0
    0.7667   -5.2868   35.3976 C   0  0  0  0  0  0  0  0  0  0  0  0
    0.9255   -5.3782   33.8801 C   0  0  0  0  0  0  0  0  0  0  0  0
    0.0252   -6.3287   33.2831 N   0  0  0  0  0  0  0  0  0  0  0  0
   -0.3191   -6.4566   31.9770 C   0  0  0  0  0  0  0  0  0  0  0  0
   -1.1004   -7.5025   31.8398 N   0  0  0  0  0  0  0  0  0  0  0  0
   -1.2893   -8.0452   33.0947 N   0  0  0  0  0  0  0  0  0  0  0  0
   -0.5976   -7.3331   33.9611 C   0  0  0  0  0  0  0  0  0  0  0  0
   -0.5068   -7.4764   35.4461 C   0  0  0  0  0  0  0  0  0  0  0  0
    0.3224   -6.3794   37.5057 N   0  0  0  0  0  0  0  0  0  0  0  0
    0.8436   -7.0863   38.5339 C   0  0  0  0  0  0  0  0  0  0  0  0
    0.3627   -7.1345   39.8606 C   0  0  0  0  0  0  0  0  0  0  0  0
    1.1275   -7.9768   40.6463 C   0  0  0  0  0  0  0  0  0  0  0  0
    2.4507   -8.6366   39.7829 S   0  0  0  0  0  0  0  0  0  0  0  0
    1.9526   -7.8544   38.3660 C   0  0  0  0  0  0  0  0  0  0  0  0
    2.4584   -7.4456   35.1902 H   0  0  0  0  0  0  0  0  0  0  0  0
    1.6016   -4.7068   35.8121 H   0  0  0  0  0  0  0  0  0  0  0  0
   -0.1425   -4.7053   35.6097 H   0  0  0  0  0  0  0  0  0  0  0  0
    1.9405   -5.6971   33.6180 H   0  0  0  0  0  0  0  0  0  0  0  0
    0.7438   -4.4010   33.4200 H   0  0  0  0  0  0  0  0  0  0  0  0
    0.0124   -5.7969   31.1876 H   0  0  0  0  0  0  0  0  0  0  0  0
   -1.4592   -7.1078   35.8387 H   0  0  0  0  0  0  0  0  0  0  0  0
   -0.4410   -8.5281   35.7263 H   0  0  0  0  0  0  0  0  0  0  0  0
   -0.5594   -5.8886   37.6464 H   0  0  0  0  0  0  0  0  0  0  0  0
   -0.5024   -6.6045   40.2379 H   0  0  0  0  0  0  0  0  0  0  0  0
    0.9839   -8.2251   41.6889 H   0  0  0  0  0  0  0  0  0  0  0  0
  1  2  2  0
  2  3  1  0
  3  4  1  0
  4  5  1  0
  5  6  1  0
  6  7  1  0
  7  8  1  0
  8  9  2  0
  9 10  1  0
 10 11  2  0
 11 12  1  0
  4 13  1  0
 13 14  1  0
 14 15  1  0
 15 16  2  0
 16 17  1  0
 17 18  1  0
 18  2  1  0
 12  4  1  0
 18 14  2  0
 11  7  1  0
  3 19  1  0
  5 20  1  0
  5 21  1  0
  6 22  1  0
  6 23  1  0
  8 24  1  0
 12 25  1  0
 12 26  1  0
 13 27  1  0
 15 28  1  0
 16 29  1  0
M  END
>  <Energy>  (182) 
-65.023461780251168

>  <compound_id>  (182) 
3232

>  <target_id>  (182) 
1

>  <reference_id>  (182) 
152

>  <inspiration_ids>  (182) 
[105, 152]

>  <energy_score>  (182) 
-49.70529460030086

>  <distance_score>  (182) 
1.511513167791706

>  <path>  (182) 
/opt/xchem-fragalysis-2/maxwin/BulkDock/SCRATCH/505734/C3232-P152/C3232-P152.minimised.mol

>  <scratch_subdir>  (182) 
/opt/xchem-fragalysis-2/maxwin/BulkDock/SCRATCH/505734/C3232-P152

>  <fragmenstein_runtime>  (182) 
1.4106030464172363

>  <fragmenstein_outcome>  (182) 
too moved

>  <fragmenstein_mode>  (182) 
expansion

>  <fragmenstein_error>  (182) 


$$$$
C3232-P105
     RDKit          3D

 29 32  0  0  0  0  0  0  0  0999 V2000
   -0.2855   -7.3115   39.7499 O   0  0  0  0  0  0  0  0  0  0  0  0
    0.2838   -7.1347   38.6789 C   0  0  0  0  0  0  0  0  0  0  0  0
   -0.3350   -6.5052   37.6109 N   0  0  0  0  0  0  0  0  0  0  0  0
    0.1286   -6.5144   36.2101 C   0  0  0  0  0  0  0  0  0  0  0  0
   -0.1834   -5.1347   35.5776 C   0  0  0  0  0  0  0  0  0  0  0  0
    0.1664   -5.0594   34.0868 C   0  0  0  0  0  0  0  0  0  0  0  0
   -0.3294   -6.1972   33.3573 N   0  0  0  0  0  0  0  0  0  0  0  0
   -0.5232   -6.3275   32.0205 C   0  0  0  0  0  0  0  0  0  0  0  0
   -1.0674   -7.4978   31.7783 N   0  0  0  0  0  0  0  0  0  0  0  0
   -1.2009   -8.1478   32.9855 N   0  0  0  0  0  0  0  0  0  0  0  0
   -0.7056   -7.3745   33.9316 C   0  0  0  0  0  0  0  0  0  0  0  0
   -0.5930   -7.6381   35.4031 C   0  0  0  0  0  0  0  0  0  0  0  0
    1.5921   -6.6903   36.1916 N   0  0  0  0  0  0  0  0  0  0  0  0
    2.2484   -7.2714   37.2249 C   0  0  0  0  0  0  0  0  0  0  0  0
    3.5981   -7.6930   37.2399 C   0  0  0  0  0  0  0  0  0  0  0  0
    3.9425   -8.2546   38.4557 C   0  0  0  0  0  0  0  0  0  0  0  0
    2.6340   -8.2550   39.5577 S   0  0  0  0  0  0  0  0  0  0  0  0
    1.6298   -7.5033   38.4168 C   0  0  0  0  0  0  0  0  0  0  0  0
   -1.2981   -6.2653   37.8025 H   0  0  0  0  0  0  0  0  0  0  0  0
    0.3501   -4.3368   36.1105 H   0  0  0  0  0  0  0  0  0  0  0  0
   -1.2531   -4.9210   35.7036 H   0  0  0  0  0  0  0  0  0  0  0  0
    1.2505   -5.0266   33.9348 H   0  0  0  0  0  0  0  0  0  0  0  0
   -0.2693   -4.1571   33.6442 H   0  0  0  0  0  0  0  0  0  0  0  0
   -0.2803   -5.5706   31.2871 H   0  0  0  0  0  0  0  0  0  0  0  0
   -1.6156   -7.7575   35.7771 H   0  0  0  0  0  0  0  0  0  0  0  0
   -0.0815   -8.5885   35.5797 H   0  0  0  0  0  0  0  0  0  0  0  0
    2.0157   -6.7198   35.2698 H   0  0  0  0  0  0  0  0  0  0  0  0
    4.2964   -7.5989   36.4190 H   0  0  0  0  0  0  0  0  0  0  0  0
    4.8996   -8.6624   38.7512 H   0  0  0  0  0  0  0  0  0  0  0  0
  1  2  2  0
  2  3  1  0
  3  4  1  0
  4  5  1  0
  5  6  1  0
  6  7  1  0
  7  8  1  0
  8  9  2  0
  9 10  1  0
 10 11  2  0
 11 12  1  0
  4 13  1  0
 13 14  1  0
 14 15  1  0
 15 16  2  0
 16 17  1  0
 17 18  1  0
 18  2  1  0
 12  4  1  0
 18 14  2  0
 11  7  1  0
  3 19  1  0
  5 20  1  0
  5 21  1  0
  6 22  1  0
  6 23  1  0
  8 24  1  0
 12 25  1  0
 12 26  1  0
 13 27  1  0
 15 28  1  0
 16 29  1  0
M  END
>  <Energy>  (183) 
-66.52543317579935

>  <compound_id>  (183) 
3232

>  <target_id>  (183) 
1

>  <reference_id>  (183) 
105

>  <inspiration_ids>  (183) 
[105, 153]

>  <energy_score>  (183) 
-51.20726599584924

>  <distance_score>  (183) 
1.5559950928419537

>  <path>  (183) 
/opt/xchem-fragalysis-2/maxwin/BulkDock/SCRATCH/505734/C3232-P105/C3232-P105.minimised.mol

>  <scratch_subdir>  (183) 
/opt/xchem-fragalysis-2/maxwin/BulkDock/SCRATCH/505734/C3232-P105

>  <fragmenstein_runtime>  (183) 
1.2555899620056152

>  <fragmenstein_outcome>  (183) 
too moved

>  <fragmenstein_mode>  (183) 
expansion

>  <fragmenstein_error>  (183) 


$$$$
C3232-P153
     RDKit          3D

 29 32  0  0  0  0  0  0  0  0999 V2000
   -0.2450   -7.3283   39.7947 O   0  0  0  0  0  0  0  0  0  0  0  0
    0.2874   -7.1645   38.7016 C   0  0  0  0  0  0  0  0  0  0  0  0
   -0.3633   -6.5344   37.6518 N   0  0  0  0  0  0  0  0  0  0  0  0
    0.0638   -6.5255   36.2405 C   0  0  0  0  0  0  0  0  0  0  0  0
   -0.2549   -5.1313   35.6406 C   0  0  0  0  0  0  0  0  0  0  0  0
    0.0828   -5.0213   34.1488 C   0  0  0  0  0  0  0  0  0  0  0  0
   -0.3845   -6.1561   33.3954 N   0  0  0  0  0  0  0  0  0  0  0  0
   -0.5319   -6.2762   32.0517 C   0  0  0  0  0  0  0  0  0  0  0  0
   -1.0238   -7.4623   31.7771 N   0  0  0  0  0  0  0  0  0  0  0  0
   -1.1814   -8.1295   32.9736 N   0  0  0  0  0  0  0  0  0  0  0  0
   -0.7531   -7.3473   33.9449 C   0  0  0  0  0  0  0  0  0  0  0  0
   -0.6968   -7.6111   35.4183 C   0  0  0  0  0  0  0  0  0  0  0  0
    1.5262   -6.7089   36.1769 N   0  0  0  0  0  0  0  0  0  0  0  0
    2.2126   -7.2848   37.1938 C   0  0  0  0  0  0  0  0  0  0  0  0
    3.5667   -7.6933   37.1739 C   0  0  0  0  0  0  0  0  0  0  0  0
    3.9492   -8.2492   38.3809 C   0  0  0  0  0  0  0  0  0  0  0  0
    2.6713   -8.2603   39.5177 S   0  0  0  0  0  0  0  0  0  0  0  0
    1.6284   -7.5222   38.4020 C   0  0  0  0  0  0  0  0  0  0  0  0
   -1.3272   -6.3234   37.8698 H   0  0  0  0  0  0  0  0  0  0  0  0
    0.2810   -4.3441   36.1868 H   0  0  0  0  0  0  0  0  0  0  0  0
   -1.3246   -4.9222   35.7784 H   0  0  0  0  0  0  0  0  0  0  0  0
    1.1654   -4.9574   33.9940 H   0  0  0  0  0  0  0  0  0  0  0  0
   -0.3770   -4.1218   33.7252 H   0  0  0  0  0  0  0  0  0  0  0  0
   -0.2904   -5.5016   31.3370 H   0  0  0  0  0  0  0  0  0  0  0  0
   -1.7324   -7.6748   35.7637 H   0  0  0  0  0  0  0  0  0  0  0  0
   -0.2470   -8.5820   35.6040 H   0  0  0  0  0  0  0  0  0  0  0  0
    1.9204   -6.7457   35.2440 H   0  0  0  0  0  0  0  0  0  0  0  0
    4.2416   -7.5943   36.3345 H   0  0  0  0  0  0  0  0  0  0  0  0
    4.9183   -8.6459   38.6505 H   0  0  0  0  0  0  0  0  0  0  0  0
  1  2  2  0
  2  3  1  0
  3  4  1  0
  4  5  1  0
  5  6  1  0
  6  7  1  0
  7  8  1  0
  8  9  2  0
  9 10  1  0
 10 11  2  0
 11 12  1  0
  4 13  1  0
 13 14  1  0
 14 15  1  0
 15 16  2  0
 16 17  1  0
 17 18  1  0
 18  2  1  0
 12  4  1  0
 18 14  2  0
 11  7  1  0
  3 19  1  0
  5 20  1  0
  5 21  1  0
  6 22  1  0
  6 23  1  0
  8 24  1  0
 12 25  1  0
 12 26  1  0
 13 27  1  0
 15 28  1  0
 16 29  1  0
M  END
>  <Energy>  (184) 
-66.567629120603129

>  <compound_id>  (184) 
3232

>  <target_id>  (184) 
1

>  <reference_id>  (184) 
153

>  <inspiration_ids>  (184) 
[105, 153]

>  <energy_score>  (184) 
-51.249461940652274

>  <distance_score>  (184) 
1.5824452265472846

>  <path>  (184) 
/opt/xchem-fragalysis-2/maxwin/BulkDock/SCRATCH/505734/C3232-P153/C3232-P153.minimised.mol

>  <scratch_subdir>  (184) 
/opt/xchem-fragalysis-2/maxwin/BulkDock/SCRATCH/505734/C3232-P153

>  <fragmenstein_runtime>  (184) 
1.0816740989685059

>  <fragmenstein_outcome>  (184) 
too moved

>  <fragmenstein_mode>  (184) 
expansion

>  <fragmenstein_error>  (184) 


$$$$
C3233-P105
     RDKit          3D

 32 34  0  0  0  0  0  0  0  0999 V2000
    2.3636   -4.7522   30.8459 O   0  0  0  0  0  0  0  0  0  0  0  0
    1.5496   -4.0949   31.8519 S   0  0  0  0  0  0  0  0  0  0  0  0
    1.2437   -2.6866   31.7683 O   0  0  0  0  0  0  0  0  0  0  0  0
    0.1134   -4.9648   31.9488 N   0  0  0  0  0  0  0  0  0  0  0  0
   -0.5422   -5.0587   33.2174 C   0  0  0  0  0  0  0  0  0  0  0  0
   -1.1139   -6.2315   33.5142 C   0  0  0  0  0  0  0  0  0  0  0  0
   -1.1749   -7.2364   32.6014 N   0  0  0  0  0  0  0  0  0  0  0  0
   -1.7926   -8.4377   32.5738 C   0  0  0  0  0  0  0  0  0  0  0  0
   -1.6564   -9.0969   31.4481 N   0  0  0  0  0  0  0  0  0  0  0  0
   -0.9149   -8.2426   30.6306 N   0  0  0  0  0  0  0  0  0  0  0  0
   -0.6315   -7.0990   31.3480 C   0  0  0  0  0  0  0  0  0  0  0  0
    0.0182   -6.0035   30.9722 C   0  0  0  0  0  0  0  0  0  0  0  0
    2.2718   -4.4018   33.3354 N   0  0  0  0  0  0  0  0  0  0  0  0
    2.1556   -3.4511   34.4616 C   0  0  0  0  0  0  0  0  0  0  0  0
    1.5000   -4.0576   35.7283 C   0  0  0  0  0  0  0  0  0  0  0  0
    1.2418   -5.5089   35.7071 N   0  0  0  0  0  0  0  0  0  0  0  0
    2.3943   -6.1857   35.1130 C   0  0  0  0  0  0  0  0  0  0  0  0
    2.7024   -5.7713   33.6618 C   0  0  0  0  0  0  0  0  0  0  0  0
   -0.5059   -4.2159   33.8929 H   0  0  0  0  0  0  0  0  0  0  0  0
   -1.5762   -6.4197   34.4746 H   0  0  0  0  0  0  0  0  0  0  0  0
   -2.3439   -8.7441   33.4681 H   0  0  0  0  0  0  0  0  0  0  0  0
   -0.1012   -8.6810   30.1880 H   0  0  0  0  0  0  0  0  0  0  0  0
    0.4581   -5.8616   29.9942 H   0  0  0  0  0  0  0  0  0  0  0  0
    1.6041   -2.5505   34.1761 H   0  0  0  0  0  0  0  0  0  0  0  0
    3.1732   -3.1234   34.7087 H   0  0  0  0  0  0  0  0  0  0  0  0
    2.1347   -3.8184   36.5914 H   0  0  0  0  0  0  0  0  0  0  0  0
    0.5474   -3.5489   35.9169 H   0  0  0  0  0  0  0  0  0  0  0  0
    1.1029   -5.8350   36.6642 H   0  0  0  0  0  0  0  0  0  0  0  0
    3.2797   -5.9962   35.7342 H   0  0  0  0  0  0  0  0  0  0  0  0
    2.2335   -7.2697   35.1441 H   0  0  0  0  0  0  0  0  0  0  0  0
    3.7818   -5.8352   33.4924 H   0  0  0  0  0  0  0  0  0  0  0  0
    2.2198   -6.4892   32.9918 H   0  0  0  0  0  0  0  0  0  0  0  0
  1  2  2  0
  2  3  2  0
  2  4  1  0
  4  5  1  0
  5  6  2  0
  6  7  1  0
  7  8  1  0
  8  9  2  0
  9 10  1  0
 10 11  1  0
 11 12  2  0
  2 13  1  0
 13 14  1  0
 14 15  1  0
 15 16  1  0
 16 17  1  0
 17 18  1  0
 12  4  1  0
 18 13  1  0
 11  7  1  0
  5 19  1  0
  6 20  1  0
  8 21  1  0
 10 22  1  0
 12 23  1  0
 14 24  1  0
 14 25  1  0
 15 26  1  0
 15 27  1  0
 16 28  1  0
 17 29  1  0
 17 30  1  0
 18 31  1  0
 18 32  1  0
M  END
>  <Energy>  (185) 
51.49022376710743

>  <compound_id>  (185) 
3233

>  <target_id>  (185) 
1

>  <reference_id>  (185) 
105

>  <inspiration_ids>  (185) 
[105, 156]

>  <energy_score>  (185) 
-44.29304929843761

>  <distance_score>  (185) 
1.9080294696726872

>  <path>  (185) 
/opt/xchem-fragalysis-2/maxwin/BulkDock/SCRATCH/505734/C3233-P105/C3233-P105.minimised.mol

>  <scratch_subdir>  (185) 
/opt/xchem-fragalysis-2/maxwin/BulkDock/SCRATCH/505734/C3233-P105

>  <fragmenstein_runtime>  (185) 
5.633026123046875

>  <fragmenstein_outcome>  (185) 
too moved

>  <fragmenstein_mode>  (185) 
expansion

>  <fragmenstein_error>  (185) 


$$$$
C3233-P156
     RDKit          3D

 32 34  0  0  0  0  0  0  0  0999 V2000
    2.2981   -4.5122   30.8111 O   0  0  0  0  0  0  0  0  0  0  0  0
    1.4539   -3.9517   31.8495 S   0  0  0  0  0  0  0  0  0  0  0  0
    0.9756   -2.5916   31.7761 O   0  0  0  0  0  0  0  0  0  0  0  0
    0.1530   -4.9896   32.0101 N   0  0  0  0  0  0  0  0  0  0  0  0
   -0.5554   -5.0732   33.2501 C   0  0  0  0  0  0  0  0  0  0  0  0
   -1.1520   -6.2409   33.5159 C   0  0  0  0  0  0  0  0  0  0  0  0
   -1.1809   -7.2418   32.5986 N   0  0  0  0  0  0  0  0  0  0  0  0
   -1.7734   -8.4553   32.5568 C   0  0  0  0  0  0  0  0  0  0  0  0
   -1.5857   -9.1100   31.4357 N   0  0  0  0  0  0  0  0  0  0  0  0
   -0.8457   -8.2413   30.6403 N   0  0  0  0  0  0  0  0  0  0  0  0
   -0.5860   -7.1038   31.3685 C   0  0  0  0  0  0  0  0  0  0  0  0
    0.0940   -6.0179   31.0236 C   0  0  0  0  0  0  0  0  0  0  0  0
    2.2665   -4.1529   33.3047 N   0  0  0  0  0  0  0  0  0  0  0  0
    1.9795   -3.2457   34.4439 C   0  0  0  0  0  0  0  0  0  0  0  0
    1.9973   -3.9769   35.8039 C   0  0  0  0  0  0  0  0  0  0  0  0
    1.3578   -5.3007   35.7473 N   0  0  0  0  0  0  0  0  0  0  0  0
    2.1015   -6.1666   34.8231 C   0  0  0  0  0  0  0  0  0  0  0  0
    2.8283   -5.4672   33.6508 C   0  0  0  0  0  0  0  0  0  0  0  0
   -0.5404   -4.2438   33.9432 H   0  0  0  0  0  0  0  0  0  0  0  0
   -1.6507   -6.4309   34.4575 H   0  0  0  0  0  0  0  0  0  0  0  0
   -2.3313   -8.7759   33.4425 H   0  0  0  0  0  0  0  0  0  0  0  0
   -0.0458   -8.6527   30.1542 H   0  0  0  0  0  0  0  0  0  0  0  0
    0.5670   -5.8847   30.0585 H   0  0  0  0  0  0  0  0  0  0  0  0
    1.0064   -2.7610   34.3206 H   0  0  0  0  0  0  0  0  0  0  0  0
    2.7339   -2.4509   34.4502 H   0  0  0  0  0  0  0  0  0  0  0  0
    3.0318   -4.0859   36.1544 H   0  0  0  0  0  0  0  0  0  0  0  0
    1.4807   -3.3580   36.5458 H   0  0  0  0  0  0  0  0  0  0  0  0
    1.3489   -5.7188   36.6784 H   0  0  0  0  0  0  0  0  0  0  0  0
    2.8532   -6.7308   35.3902 H   0  0  0  0  0  0  0  0  0  0  0  0
    1.4156   -6.9235   34.4302 H   0  0  0  0  0  0  0  0  0  0  0  0
    3.8834   -5.3163   33.9098 H   0  0  0  0  0  0  0  0  0  0  0  0
    2.8062   -6.1309   32.7861 H   0  0  0  0  0  0  0  0  0  0  0  0
  1  2  2  0
  2  3  2  0
  2  4  1  0
  4  5  1  0
  5  6  2  0
  6  7  1  0
  7  8  1  0
  8  9  2  0
  9 10  1  0
 10 11  1  0
 11 12  2  0
  2 13  1  0
 13 14  1  0
 14 15  1  0
 15 16  1  0
 16 17  1  0
 17 18  1  0
 12  4  1  0
 18 13  1  0
 11  7  1  0
  5 19  1  0
  6 20  1  0
  8 21  1  0
 10 22  1  0
 12 23  1  0
 14 24  1  0
 14 25  1  0
 15 26  1  0
 15 27  1  0
 16 28  1  0
 17 29  1  0
 17 30  1  0
 18 31  1  0
 18 32  1  0
M  END
>  <Energy>  (186) 
46.663553336473292

>  <compound_id>  (186) 
3233

>  <target_id>  (186) 
1

>  <reference_id>  (186) 
156

>  <inspiration_ids>  (186) 
[105, 156]

>  <energy_score>  (186) 
-49.119719729072784

>  <distance_score>  (186) 
1.874762386807777

>  <path>  (186) 
/opt/xchem-fragalysis-2/maxwin/BulkDock/SCRATCH/505734/C3233-P156/C3233-P156.minimised.mol

>  <scratch_subdir>  (186) 
/opt/xchem-fragalysis-2/maxwin/BulkDock/SCRATCH/505734/C3233-P156

>  <fragmenstein_runtime>  (186) 
5.998722314834595

>  <fragmenstein_outcome>  (186) 
too moved

>  <fragmenstein_mode>  (186) 
expansion

>  <fragmenstein_error>  (186) 


$$$$
C2583-P105
     RDKit          3D

 50 54  0  0  0  0  0  0  0  0999 V2000
    1.9402   -6.4286   38.6158 O   0  0  0  0  0  0  0  0  0  0  0  0
    2.2989   -7.0038   37.6607 C   0  0  0  0  0  0  0  0  0  0  0  0
    3.0502   -6.4864   36.3898 N   0  0  0  0  0  0  0  0  0  0  0  0
    3.4268   -5.1294   35.9973 C   0  0  0  0  0  0  0  0  0  0  0  0
    2.1493   -4.2367   35.9320 C   0  0  0  0  0  0  0  0  0  0  0  0
    1.8425   -3.3988   34.9691 N   0  0  0  0  0  0  0  0  0  0  0  0
    0.6650   -2.7708   35.3192 N   0  0  0  0  0  0  0  0  0  0  0  0
    0.2841   -3.2334   36.4931 C   0  0  0  0  0  0  0  0  0  0  0  0
   -0.8768   -2.8315   37.2245 C   0  0  0  0  0  0  0  0  0  0  0  0
   -1.7932   -1.8659   36.8553 C   0  0  0  0  0  0  0  0  0  0  0  0
   -2.8299   -1.6960   37.8203 C   0  0  0  0  0  0  0  0  0  0  0  0
   -2.6786   -2.5476   38.8911 C   0  0  0  0  0  0  0  0  0  0  0  0
   -1.2941   -3.5375   38.7306 S   0  0  0  0  0  0  0  0  0  0  0  0
    1.1864   -4.1735   36.9029 N   0  0  0  0  0  0  0  0  0  0  0  0
    4.3617   -5.0571   34.7637 C   0  0  0  0  0  0  0  0  0  0  0  0
    5.5547   -5.0654   35.7411 C   0  0  0  0  0  0  0  0  0  0  0  0
    4.5928   -4.5295   36.8215 C   0  0  0  0  0  0  0  0  0  0  0  0
    1.9763   -8.4973   37.4109 C   0  0  0  0  0  0  0  0  0  0  0  0
    2.3666   -9.4272   38.8717 Cl  0  0  0  0  0  0  0  0  0  0  0  0
    0.2022   -8.6462   36.9952 S   0  0  0  0  0  0  0  0  0  0  0  0
    0.0898   -7.5293   35.5611 C   0  0  0  0  0  0  0  0  0  0  0  0
   -1.3022   -7.4253   34.9143 C   0  0  0  0  0  0  0  0  0  0  0  0
   -1.1869   -7.4102   33.4257 C   0  0  0  0  0  0  0  0  0  0  0  0
   -1.5778   -8.3473   32.5759 N   0  0  0  0  0  0  0  0  0  0  0  0
   -0.9953   -8.0997   31.3486 N   0  0  0  0  0  0  0  0  0  0  0  0
   -0.2891   -7.0086   31.4990 C   0  0  0  0  0  0  0  0  0  0  0  0
    0.6528   -6.3839   30.6332 C   0  0  0  0  0  0  0  0  0  0  0  0
    1.2281   -5.2513   30.9338 N   0  0  0  0  0  0  0  0  0  0  0  0
    0.8543   -4.6503   32.1258 C   0  0  0  0  0  0  0  0  0  0  0  0
    0.0395   -5.2267   33.0278 C   0  0  0  0  0  0  0  0  0  0  0  0
   -0.4987   -6.4561   32.7245 N   0  0  0  0  0  0  0  0  0  0  0  0
    3.1340   -7.2380   35.7164 H   0  0  0  0  0  0  0  0  0  0  0  0
   -1.7171   -1.2997   35.9333 H   0  0  0  0  0  0  0  0  0  0  0  0
   -3.6421   -0.9852   37.7301 H   0  0  0  0  0  0  0  0  0  0  0  0
   -3.3134   -2.6438   39.7623 H   0  0  0  0  0  0  0  0  0  0  0  0
    1.1816   -4.6655   37.7898 H   0  0  0  0  0  0  0  0  0  0  0  0
    4.3212   -5.9021   34.0715 H   0  0  0  0  0  0  0  0  0  0  0  0
    4.2940   -4.1315   34.1795 H   0  0  0  0  0  0  0  0  0  0  0  0
    6.3878   -4.4085   35.4792 H   0  0  0  0  0  0  0  0  0  0  0  0
    5.9440   -6.0676   35.9539 H   0  0  0  0  0  0  0  0  0  0  0  0
    4.7463   -4.9396   37.8242 H   0  0  0  0  0  0  0  0  0  0  0  0
    4.5866   -3.4348   36.8925 H   0  0  0  0  0  0  0  0  0  0  0  0
    2.5730   -8.9245   36.6019 H   0  0  0  0  0  0  0  0  0  0  0  0
    0.8515   -7.8421   34.8412 H   0  0  0  0  0  0  0  0  0  0  0  0
    0.3531   -6.5280   35.9002 H   0  0  0  0  0  0  0  0  0  0  0  0
   -1.7783   -6.4982   35.2510 H   0  0  0  0  0  0  0  0  0  0  0  0
   -1.9673   -8.2359   35.2199 H   0  0  0  0  0  0  0  0  0  0  0  0
    0.9671   -6.9088   29.7316 H   0  0  0  0  0  0  0  0  0  0  0  0
    1.2828   -3.6680   32.3237 H   0  0  0  0  0  0  0  0  0  0  0  0
   -0.2291   -4.7631   33.9655 H   0  0  0  0  0  0  0  0  0  0  0  0
  1  2  2  0
  2  3  1  0
  3  4  1  0
  4  5  1  0
  5  6  2  0
  6  7  1  0
  7  8  2  0
  8  9  1  0
  9 10  2  0
 10 11  1  0
 11 12  2  0
 12 13  1  0
  8 14  1  0
  4 15  1  0
 15 16  1  0
 16 17  1  0
  2 18  1  0
 18 19  1  0
 18 20  1  0
 20 21  1  0
 21 22  1  0
 22 23  1  0
 23 24  2  0
 24 25  1  0
 25 26  2  0
 26 27  1  0
 27 28  2  0
 28 29  1  0
 29 30  2  0
 30 31  1  0
 17  4  1  0
 31 23  1  0
 14  5  1  0
 31 26  1  0
 13  9  1  0
  3 32  1  0
 10 33  1  0
 11 34  1  0
 12 35  1  0
 14 36  1  0
 15 37  1  0
 15 38  1  0
 16 39  1  0
 16 40  1  0
 17 41  1  0
 17 42  1  0
 18 43  1  0
 21 44  1  0
 21 45  1  0
 22 46  1  0
 22 47  1  0
 27 48  1  0
 29 49  1  0
 30 50  1  0
M  END
>  <Energy>  (187) 
79.528309359841032

>  <compound_id>  (187) 
2583

>  <target_id>  (187) 
1

>  <reference_id>  (187) 
105

>  <inspiration_ids>  (187) 
[105, 157]

>  <energy_score>  (187) 
-36.479281007726684

>  <distance_score>  (187) 
1.2853845855606179

>  <path>  (187) 
/opt/xchem-fragalysis-2/maxwin/BulkDock/SCRATCH/505734/C2583-P105/C2583-P105.minimised.mol

>  <scratch_subdir>  (187) 
/opt/xchem-fragalysis-2/maxwin/BulkDock/SCRATCH/505734/C2583-P105

>  <fragmenstein_runtime>  (187) 
7.437891483306885

>  <fragmenstein_outcome>  (187) 
too moved

>  <fragmenstein_mode>  (187) 
expansion

>  <fragmenstein_error>  (187) 


$$$$
C2583-P157
     RDKit          3D

 50 54  0  0  0  0  0  0  0  0999 V2000
    2.0197   -4.8389   38.5698 O   0  0  0  0  0  0  0  0  0  0  0  0
    2.3061   -5.5483   37.6846 C   0  0  0  0  0  0  0  0  0  0  0  0
    2.8292   -5.2176   36.2574 N   0  0  0  0  0  0  0  0  0  0  0  0
    3.0159   -3.9405   35.5956 C   0  0  0  0  0  0  0  0  0  0  0  0
    1.6160   -3.2687   35.4137 C   0  0  0  0  0  0  0  0  0  0  0  0
    1.2326   -2.5566   34.3789 N   0  0  0  0  0  0  0  0  0  0  0  0
   -0.0307   -2.0726   34.6476 N   0  0  0  0  0  0  0  0  0  0  0  0
   -0.3757   -2.4712   35.8557 C   0  0  0  0  0  0  0  0  0  0  0  0
   -1.5645   -2.1046   36.5610 C   0  0  0  0  0  0  0  0  0  0  0  0
   -2.6146   -1.3503   36.0744 C   0  0  0  0  0  0  0  0  0  0  0  0
   -3.6358   -1.1381   37.0473 C   0  0  0  0  0  0  0  0  0  0  0  0
   -3.3347   -1.7415   38.2473 C   0  0  0  0  0  0  0  0  0  0  0  0
   -1.8344   -2.5602   38.1932 S   0  0  0  0  0  0  0  0  0  0  0  0
    0.6111   -3.2814   36.3446 N   0  0  0  0  0  0  0  0  0  0  0  0
    3.9099   -3.9988   34.3333 C   0  0  0  0  0  0  0  0  0  0  0  0
    4.5804   -2.6955   34.8113 C   0  0  0  0  0  0  0  0  0  0  0  0
    4.0925   -3.0319   36.2345 C   0  0  0  0  0  0  0  0  0  0  0  0
    2.0867   -7.0746   37.7775 C   0  0  0  0  0  0  0  0  0  0  0  0
    3.2145   -7.9784   36.7425 Cl  0  0  0  0  0  0  0  0  0  0  0  0
    0.3167   -7.3834   37.4102 S   0  0  0  0  0  0  0  0  0  0  0  0
    0.2493   -7.2810   35.5933 C   0  0  0  0  0  0  0  0  0  0  0  0
   -1.1865   -7.2533   35.0390 C   0  0  0  0  0  0  0  0  0  0  0  0
   -1.1703   -7.3366   33.5464 C   0  0  0  0  0  0  0  0  0  0  0  0
   -1.5823   -8.3421   32.7912 N   0  0  0  0  0  0  0  0  0  0  0  0
   -1.1175   -8.1579   31.5056 N   0  0  0  0  0  0  0  0  0  0  0  0
   -0.4599   -7.0297   31.5262 C   0  0  0  0  0  0  0  0  0  0  0  0
    0.3490   -6.4208   30.5295 C   0  0  0  0  0  0  0  0  0  0  0  0
    0.9024   -5.2523   30.7015 N   0  0  0  0  0  0  0  0  0  0  0  0
    0.6179   -4.5913   31.8861 C   0  0  0  0  0  0  0  0  0  0  0  0
   -0.0811   -5.1391   32.8968 C   0  0  0  0  0  0  0  0  0  0  0  0
   -0.5830   -6.4085   32.7289 N   0  0  0  0  0  0  0  0  0  0  0  0
    3.0564   -6.0813   35.7700 H   0  0  0  0  0  0  0  0  0  0  0  0
   -2.6432   -0.9634   35.0616 H   0  0  0  0  0  0  0  0  0  0  0  0
   -4.5395   -0.5675   36.8724 H   0  0  0  0  0  0  0  0  0  0  0  0
   -3.9204   -1.7454   39.1566 H   0  0  0  0  0  0  0  0  0  0  0  0
    0.6533   -3.6634   37.2807 H   0  0  0  0  0  0  0  0  0  0  0  0
    4.5983   -4.8529   34.3053 H   0  0  0  0  0  0  0  0  0  0  0  0
    3.4084   -3.9360   33.3636 H   0  0  0  0  0  0  0  0  0  0  0  0
    4.1309   -1.7877   34.3932 H   0  0  0  0  0  0  0  0  0  0  0  0
    5.6645   -2.6456   34.6816 H   0  0  0  0  0  0  0  0  0  0  0  0
    4.8396   -3.5673   36.8336 H   0  0  0  0  0  0  0  0  0  0  0  0
    3.7335   -2.1775   36.8161 H   0  0  0  0  0  0  0  0  0  0  0  0
    2.2894   -7.3794   38.8087 H   0  0  0  0  0  0  0  0  0  0  0  0
    0.7948   -8.1272   35.1739 H   0  0  0  0  0  0  0  0  0  0  0  0
    0.7635   -6.3724   35.2797 H   0  0  0  0  0  0  0  0  0  0  0  0
   -1.7680   -8.0905   35.4375 H   0  0  0  0  0  0  0  0  0  0  0  0
   -1.6876   -6.3308   35.3518 H   0  0  0  0  0  0  0  0  0  0  0  0
    0.5564   -6.9943   29.6296 H   0  0  0  0  0  0  0  0  0  0  0  0
    1.0020   -3.5754   31.9692 H   0  0  0  0  0  0  0  0  0  0  0  0
   -0.2989   -4.6241   33.8187 H   0  0  0  0  0  0  0  0  0  0  0  0
  1  2  2  0
  2  3  1  0
  3  4  1  0
  4  5  1  0
  5  6  2  0
  6  7  1  0
  7  8  2  0
  8  9  1  0
  9 10  2  0
 10 11  1  0
 11 12  2  0
 12 13  1  0
  8 14  1  0
  4 15  1  0
 15 16  1  0
 16 17  1  0
  2 18  1  0
 18 19  1  0
 18 20  1  0
 20 21  1  0
 21 22  1  0
 22 23  1  0
 23 24  2  0
 24 25  1  0
 25 26  2  0
 26 27  1  0
 27 28  2  0
 28 29  1  0
 29 30  2  0
 30 31  1  0
 17  4  1  0
 31 23  1  0
 14  5  1  0
 31 26  1  0
 13  9  1  0
  3 32  1  0
 10 33  1  0
 11 34  1  0
 12 35  1  0
 14 36  1  0
 15 37  1  0
 15 38  1  0
 16 39  1  0
 16 40  1  0
 17 41  1  0
 17 42  1  0
 18 43  1  0
 21 44  1  0
 21 45  1  0
 22 46  1  0
 22 47  1  0
 27 48  1  0
 29 49  1  0
 30 50  1  0
M  END
>  <Energy>  (188) 
74.416297117323509

>  <compound_id>  (188) 
2583

>  <target_id>  (188) 
1

>  <reference_id>  (188) 
157

>  <inspiration_ids>  (188) 
[105, 157]

>  <energy_score>  (188) 
-41.59129325024523

>  <distance_score>  (188) 
1.4188537859887096

>  <path>  (188) 
/opt/xchem-fragalysis-2/maxwin/BulkDock/SCRATCH/505734/C2583-P157/C2583-P157.minimised.mol

>  <scratch_subdir>  (188) 
/opt/xchem-fragalysis-2/maxwin/BulkDock/SCRATCH/505734/C2583-P157

>  <fragmenstein_runtime>  (188) 
6.885680198669434

>  <fragmenstein_outcome>  (188) 
too moved

>  <fragmenstein_mode>  (188) 
expansion

>  <fragmenstein_error>  (188) 


$$$$
C2630-P105
     RDKit          3D

 42 45  0  0  0  0  0  0  0  0999 V2000
   -1.4756   -0.2668   28.7299 S   0  0  0  0  0  0  0  0  0  0  0  0
   -0.3624   -1.5948   29.2700 C   0  0  0  0  0  0  0  0  0  0  0  0
    1.2841   -0.9267   29.5252 Cl  0  0  0  0  0  0  0  0  0  0  0  0
   -0.7959   -2.2582   30.6601 C   0  0  0  0  0  0  0  0  0  0  0  0
   -0.5179   -3.4554   30.8812 N   0  0  0  0  0  0  0  0  0  0  0  0
    0.1686   -4.3239   29.9300 C   0  0  0  0  0  0  0  0  0  0  0  0
    0.9086   -5.4511   30.6450 C   0  0  0  0  0  0  0  0  0  0  0  0
    0.0171   -6.3364   31.4350 C   0  0  0  0  0  0  0  0  0  0  0  0
   -0.6992   -7.3593   30.9936 N   0  0  0  0  0  0  0  0  0  0  0  0
   -1.3301   -7.9459   32.0753 N   0  0  0  0  0  0  0  0  0  0  0  0
   -0.9724   -7.2592   33.1337 C   0  0  0  0  0  0  0  0  0  0  0  0
   -1.3306   -7.4239   34.5087 C   0  0  0  0  0  0  0  0  0  0  0  0
   -0.8841   -6.6169   35.4368 N   0  0  0  0  0  0  0  0  0  0  0  0
   -0.0385   -5.5920   35.0405 C   0  0  0  0  0  0  0  0  0  0  0  0
    0.3330   -5.3718   33.7664 C   0  0  0  0  0  0  0  0  0  0  0  0
   -0.1468   -6.2281   32.7926 N   0  0  0  0  0  0  0  0  0  0  0  0
   -1.4780   -1.2643   31.4830 N   0  0  0  0  0  0  0  0  0  0  0  0
   -2.4563   -1.4812   33.2596 C   0  0  0  0  0  0  0  0  0  0  0  0
   -1.7837   -1.9336   34.9154 C   0  0  0  0  0  0  0  0  0  0  0  0
   -0.6431   -1.0260   34.9696 C   0  0  0  0  0  0  0  0  0  0  0  0
    0.4938   -0.4950   36.0453 S   0  0  0  0  0  0  0  0  0  0  0  0
    1.2315    0.4668   34.7840 C   0  0  0  0  0  0  0  0  0  0  0  0
    0.5819    0.3438   33.5604 C   0  0  0  0  0  0  0  0  0  0  0  0
   -0.5027   -0.5259   33.7266 C   0  0  0  0  0  0  0  0  0  0  0  0
   -1.8748   -1.2996   32.7453 C   0  0  0  0  0  0  0  0  0  0  0  0
   -1.8063    0.1052   29.9769 H   0  0  0  0  0  0  0  0  0  0  0  0
   -0.3177   -2.3274   28.4630 H   0  0  0  0  0  0  0  0  0  0  0  0
    0.9223   -3.7928   29.3418 H   0  0  0  0  0  0  0  0  0  0  0  0
   -0.5733   -4.7326   29.2420 H   0  0  0  0  0  0  0  0  0  0  0  0
    1.4284   -6.0631   29.8983 H   0  0  0  0  0  0  0  0  0  0  0  0
    1.6942   -5.0270   31.2812 H   0  0  0  0  0  0  0  0  0  0  0  0
   -2.0259   -8.2251   34.7911 H   0  0  0  0  0  0  0  0  0  0  0  0
    0.3125   -4.9373   35.8357 H   0  0  0  0  0  0  0  0  0  0  0  0
    0.9756   -4.5532   33.4695 H   0  0  0  0  0  0  0  0  0  0  0  0
   -3.3712   -0.6568   33.4580 H   0  0  0  0  0  0  0  0  0  0  0  0
   -3.2174   -2.4278   33.0628 H   0  0  0  0  0  0  0  0  0  0  0  0
   -1.5071   -2.9904   34.8917 H   0  0  0  0  0  0  0  0  0  0  0  0
   -2.5741   -1.7305   35.6423 H   0  0  0  0  0  0  0  0  0  0  0  0
    2.1058    1.0590   35.0167 H   0  0  0  0  0  0  0  0  0  0  0  0
    0.8802    0.8381   32.6445 H   0  0  0  0  0  0  0  0  0  0  0  0
   -0.9601   -2.1973   32.8302 H   0  0  0  0  0  0  0  0  0  0  0  0
   -1.9117   -0.0372   32.4942 H   0  0  0  0  0  0  0  0  0  0  0  0
  1  2  1  0
  2  3  1  0
  2  4  1  0
  4  5  2  3
  5  6  1  0
  6  7  1  0
  7  8  1  0
  8  9  2  0
  9 10  1  0
 10 11  2  0
 11 12  1  0
 12 13  2  0
 13 14  1  0
 14 15  2  0
 15 16  1  0
  4 17  1  0
 17 18  1  0
 18 19  1  0
 19 20  1  0
 20 21  1  0
 21 22  1  0
 22 23  2  0
 23 24  1  0
 24 25  1  0
 16  8  1  0
 25 17  1  0
 16 11  1  0
 24 20  2  0
  1 26  1  0
  2 27  1  0
  6 28  1  0
  6 29  1  0
  7 30  1  0
  7 31  1  0
 12 32  1  0
 14 33  1  0
 15 34  1  0
 18 35  1  0
 18 36  1  0
 19 37  1  0
 19 38  1  0
 22 39  1  0
 23 40  1  0
 25 41  1  0
 25 42  1  0
M  END
>  <Energy>  (189) 
857.96705419899979

>  <compound_id>  (189) 
2630

>  <target_id>  (189) 
1

>  <reference_id>  (189) 
105

>  <inspiration_ids>  (189) 
[105, 158]

>  <energy_score>  (189) 
717.0455721633491

>  <distance_score>  (189) 
1.4627170404059142

>  <path>  (189) 
/opt/xchem-fragalysis-2/maxwin/BulkDock/SCRATCH/505734/C2630-P105/C2630-P105.minimised.mol

>  <scratch_subdir>  (189) 
/opt/xchem-fragalysis-2/maxwin/BulkDock/SCRATCH/505734/C2630-P105

>  <fragmenstein_runtime>  (189) 
3.9734609127044678

>  <fragmenstein_outcome>  (189) 
too moved

>  <fragmenstein_mode>  (189) 
expansion

>  <fragmenstein_error>  (189) 


$$$$
C2630-P158
     RDKit          3D

 42 45  0  0  0  0  0  0  0  0999 V2000
   -1.5783   -1.1464   31.2482 S   0  0  0  0  0  0  0  0  0  0  0  0
    0.2149   -1.0081   31.4046 C   0  0  0  0  0  0  0  0  0  0  0  0
    0.8338   -1.5681   32.9778 Cl  0  0  0  0  0  0  0  0  0  0  0  0
    0.9931   -1.7189   30.2290 C   0  0  0  0  0  0  0  0  0  0  0  0
    0.9355   -2.9433   30.0338 N   0  0  0  0  0  0  0  0  0  0  0  0
    0.0947   -3.9206   30.7011 C   0  0  0  0  0  0  0  0  0  0  0  0
    0.8307   -5.2546   30.8032 C   0  0  0  0  0  0  0  0  0  0  0  0
   -0.0176   -6.2917   31.4512 C   0  0  0  0  0  0  0  0  0  0  0  0
   -0.6818   -7.2695   30.8545 N   0  0  0  0  0  0  0  0  0  0  0  0
   -1.3959   -7.9609   31.8149 N   0  0  0  0  0  0  0  0  0  0  0  0
   -1.1302   -7.3881   32.9646 C   0  0  0  0  0  0  0  0  0  0  0  0
   -1.6149   -7.6763   34.2802 C   0  0  0  0  0  0  0  0  0  0  0  0
   -1.2186   -6.9865   35.3186 N   0  0  0  0  0  0  0  0  0  0  0  0
   -0.3099   -5.9624   35.1052 C   0  0  0  0  0  0  0  0  0  0  0  0
    0.1748   -5.6261   33.8964 C   0  0  0  0  0  0  0  0  0  0  0  0
   -0.2551   -6.3530   32.8026 N   0  0  0  0  0  0  0  0  0  0  0  0
    1.6950   -0.6751   29.5175 N   0  0  0  0  0  0  0  0  0  0  0  0
    3.0590   -0.7994   28.0298 C   0  0  0  0  0  0  0  0  0  0  0  0
    4.2931    0.5535   28.1667 C   0  0  0  0  0  0  0  0  0  0  0  0
    3.3475    1.6482   27.9955 C   0  0  0  0  0  0  0  0  0  0  0  0
    3.3668    3.2804   27.7275 S   0  0  0  0  0  0  0  0  0  0  0  0
    1.6211    3.2955   27.7011 C   0  0  0  0  0  0  0  0  0  0  0  0
    1.0670    2.0362   27.9009 C   0  0  0  0  0  0  0  0  0  0  0  0
    2.1100    1.1079   28.0619 C   0  0  0  0  0  0  0  0  0  0  0  0
    2.3670   -0.7011   28.3640 C   0  0  0  0  0  0  0  0  0  0  0  0
   -1.6123   -0.8938   29.9299 H   0  0  0  0  0  0  0  0  0  0  0  0
    0.4384    0.0634   31.3740 H   0  0  0  0  0  0  0  0  0  0  0  0
   -0.2324   -3.6231   31.6967 H   0  0  0  0  0  0  0  0  0  0  0  0
   -0.8088   -4.0536   30.0978 H   0  0  0  0  0  0  0  0  0  0  0  0
    1.1279   -5.5956   29.8052 H   0  0  0  0  0  0  0  0  0  0  0  0
    1.7575   -5.1192   31.3722 H   0  0  0  0  0  0  0  0  0  0  0  0
   -2.3630   -8.4696   34.4132 H   0  0  0  0  0  0  0  0  0  0  0  0
   -0.0133   -5.4073   35.9927 H   0  0  0  0  0  0  0  0  0  0  0  0
    0.8665   -4.8083   33.7456 H   0  0  0  0  0  0  0  0  0  0  0  0
    3.8268   -1.7129   28.3643 H   0  0  0  0  0  0  0  0  0  0  0  0
    2.9447   -1.0375   26.7662 H   0  0  0  0  0  0  0  0  0  0  0  0
    5.0124    0.4173   27.3563 H   0  0  0  0  0  0  0  0  0  0  0  0
    4.7436    0.4930   29.1614 H   0  0  0  0  0  0  0  0  0  0  0  0
    1.1025    4.2307   27.5392 H   0  0  0  0  0  0  0  0  0  0  0  0
    0.0049    1.8263   27.9205 H   0  0  0  0  0  0  0  0  0  0  0  0
    1.6764   -1.7806   27.9616 H   0  0  0  0  0  0  0  0  0  0  0  0
    1.3311   -0.4870   27.6138 H   0  0  0  0  0  0  0  0  0  0  0  0
  1  2  1  0
  2  3  1  0
  2  4  1  0
  4  5  2  3
  5  6  1  0
  6  7  1  0
  7  8  1  0
  8  9  2  0
  9 10  1  0
 10 11  2  0
 11 12  1  0
 12 13  2  0
 13 14  1  0
 14 15  2  0
 15 16  1  0
  4 17  1  0
 17 18  1  0
 18 19  1  0
 19 20  1  0
 20 21  1  0
 21 22  1  0
 22 23  2  0
 23 24  1  0
 24 25  1  0
 16  8  1  0
 25 17  1  0
 16 11  1  0
 24 20  2  0
  1 26  1  0
  2 27  1  0
  6 28  1  0
  6 29  1  0
  7 30  1  0
  7 31  1  0
 12 32  1  0
 14 33  1  0
 15 34  1  0
 18 35  1  0
 18 36  1  0
 19 37  1  0
 19 38  1  0
 22 39  1  0
 23 40  1  0
 25 41  1  0
 25 42  1  0
M  END
>  <Energy>  (190) 
861.54796844631971

>  <compound_id>  (190) 
2630

>  <target_id>  (190) 
1

>  <reference_id>  (190) 
158

>  <inspiration_ids>  (190) 
[105, 158]

>  <energy_score>  (190) 
720.6264864106709

>  <distance_score>  (190) 
1.3945167458195054

>  <path>  (190) 
/opt/xchem-fragalysis-2/maxwin/BulkDock/SCRATCH/505734/C2630-P158/C2630-P158.minimised.mol

>  <scratch_subdir>  (190) 
/opt/xchem-fragalysis-2/maxwin/BulkDock/SCRATCH/505734/C2630-P158

>  <fragmenstein_runtime>  (190) 
3.6287152767181396

>  <fragmenstein_outcome>  (190) 
too moved

>  <fragmenstein_mode>  (190) 
expansion

>  <fragmenstein_error>  (190) 


$$$$
C3236-P105
     RDKit          3D

 30 32  0  0  0  0  0  0  0  0999 V2000
    2.1491   -1.8477   32.7098 O   0  0  0  0  0  0  0  0  0  0  0  0
    3.1049   -2.9115   32.9085 S   0  0  0  0  0  0  0  0  0  0  0  0
    4.5242   -2.7203   32.7228 O   0  0  0  0  0  0  0  0  0  0  0  0
    2.6731   -4.2006   31.8806 N   0  0  0  0  0  0  0  0  0  0  0  0
    1.2389   -4.2799   31.4850 C   0  0  0  0  0  0  0  0  0  0  0  0
    0.9702   -5.6076   30.7570 C   0  0  0  0  0  0  0  0  0  0  0  0
    0.0456   -6.5359   31.4655 C   0  0  0  0  0  0  0  0  0  0  0  0
   -0.9690   -7.1989   30.9305 N   0  0  0  0  0  0  0  0  0  0  0  0
   -1.6704   -7.8177   31.9488 N   0  0  0  0  0  0  0  0  0  0  0  0
   -1.0609   -7.5009   33.0655 C   0  0  0  0  0  0  0  0  0  0  0  0
   -1.4084   -7.7466   34.4317 C   0  0  0  0  0  0  0  0  0  0  0  0
   -0.6319   -7.3704   35.4142 N   0  0  0  0  0  0  0  0  0  0  0  0
    0.5818   -6.7968   35.0867 C   0  0  0  0  0  0  0  0  0  0  0  0
    0.9550   -6.5061   33.8302 C   0  0  0  0  0  0  0  0  0  0  0  0
    0.0839   -6.8100   32.8074 N   0  0  0  0  0  0  0  0  0  0  0  0
    2.8816   -3.4431   34.5667 C   0  0  0  0  0  0  0  0  0  0  0  0
    1.9733   -3.1577   35.5676 C   0  0  0  0  0  0  0  0  0  0  0  0
    2.2408   -3.9565   36.7166 C   0  0  0  0  0  0  0  0  0  0  0  0
    3.2518   -4.8196   36.6288 N   0  0  0  0  0  0  0  0  0  0  0  0
    3.9991   -4.5900   35.1598 S   0  0  0  0  0  0  0  0  0  0  0  0
    3.3036   -4.1471   31.0743 H   0  0  0  0  0  0  0  0  0  0  0  0
    1.0521   -3.4584   30.7822 H   0  0  0  0  0  0  0  0  0  0  0  0
    0.5879   -4.1352   32.3523 H   0  0  0  0  0  0  0  0  0  0  0  0
    0.5068   -5.3640   29.7943 H   0  0  0  0  0  0  0  0  0  0  0  0
    1.9024   -6.1323   30.5263 H   0  0  0  0  0  0  0  0  0  0  0  0
   -2.3646   -8.2366   34.6642 H   0  0  0  0  0  0  0  0  0  0  0  0
    1.2428   -6.6003   35.9271 H   0  0  0  0  0  0  0  0  0  0  0  0
    1.9059   -6.0658   33.5846 H   0  0  0  0  0  0  0  0  0  0  0  0
    1.1692   -2.4389   35.4731 H   0  0  0  0  0  0  0  0  0  0  0  0
    1.6793   -3.9431   37.6437 H   0  0  0  0  0  0  0  0  0  0  0  0
  1  2  2  0
  2  3  2  0
  2  4  1  0
  4  5  1  0
  5  6  1  0
  6  7  1  0
  7  8  2  0
  8  9  1  0
  9 10  2  0
 10 11  1  0
 11 12  2  0
 12 13  1  0
 13 14  2  0
 14 15  1  0
  2 16  1  0
 16 17  2  0
 17 18  1  0
 18 19  2  0
 19 20  1  0
 15  7  1  0
 20 16  1  0
 15 10  1  0
  4 21  1  0
  5 22  1  0
  5 23  1  0
  6 24  1  0
  6 25  1  0
 11 26  1  0
 13 27  1  0
 14 28  1  0
 17 29  1  0
 18 30  1  0
M  END
>  <Energy>  (191) 
-44.530384997459571

>  <compound_id>  (191) 
3236

>  <target_id>  (191) 
1

>  <reference_id>  (191) 
105

>  <inspiration_ids>  (191) 
[105, 164]

>  <energy_score>  (191) 
-41.83124305075876

>  <distance_score>  (191) 
1.020101174183739

>  <path>  (191) 
/opt/xchem-fragalysis-2/maxwin/BulkDock/SCRATCH/505734/C3236-P105/C3236-P105.minimised.mol

>  <scratch_subdir>  (191) 
/opt/xchem-fragalysis-2/maxwin/BulkDock/SCRATCH/505734/C3236-P105

>  <fragmenstein_runtime>  (191) 
0.7600381374359131

>  <fragmenstein_outcome>  (191) 
too moved

>  <fragmenstein_mode>  (191) 
expansion

>  <fragmenstein_error>  (191) 


$$$$
C3236-P164
     RDKit          3D

 30 32  0  0  0  0  0  0  0  0999 V2000
    3.3910   -2.5211   32.6861 O   0  0  0  0  0  0  0  0  0  0  0  0
    3.8312   -3.8838   32.8700 S   0  0  0  0  0  0  0  0  0  0  0  0
    5.1854   -4.3060   32.6003 O   0  0  0  0  0  0  0  0  0  0  0  0
    2.8399   -4.8912   31.9164 N   0  0  0  0  0  0  0  0  0  0  0  0
    1.5569   -4.3121   31.4441 C   0  0  0  0  0  0  0  0  0  0  0  0
    0.7319   -5.3586   30.7011 C   0  0  0  0  0  0  0  0  0  0  0  0
   -0.0401   -6.3827   31.4668 C   0  0  0  0  0  0  0  0  0  0  0  0
   -0.7647   -7.3241   30.8715 N   0  0  0  0  0  0  0  0  0  0  0  0
   -1.4759   -8.0134   31.8243 N   0  0  0  0  0  0  0  0  0  0  0  0
   -1.1445   -7.4916   32.9777 C   0  0  0  0  0  0  0  0  0  0  0  0
   -1.6262   -7.7923   34.2895 C   0  0  0  0  0  0  0  0  0  0  0  0
   -1.1667   -7.1871   35.3504 N   0  0  0  0  0  0  0  0  0  0  0  0
   -0.1911   -6.2309   35.1595 C   0  0  0  0  0  0  0  0  0  0  0  0
    0.2699   -5.8641   33.9529 C   0  0  0  0  0  0  0  0  0  0  0  0
   -0.2189   -6.4963   32.8273 N   0  0  0  0  0  0  0  0  0  0  0  0
    3.5322   -4.2504   34.5590 C   0  0  0  0  0  0  0  0  0  0  0  0
    3.0663   -3.5378   35.6471 C   0  0  0  0  0  0  0  0  0  0  0  0
    2.9646   -4.3901   36.7846 C   0  0  0  0  0  0  0  0  0  0  0  0
    3.3049   -5.6655   36.6121 N   0  0  0  0  0  0  0  0  0  0  0  0
    3.8572   -5.8489   35.0574 S   0  0  0  0  0  0  0  0  0  0  0  0
    3.4290   -5.1921   31.1347 H   0  0  0  0  0  0  0  0  0  0  0  0
    1.8110   -3.5262   30.7207 H   0  0  0  0  0  0  0  0  0  0  0  0
    0.9910   -3.8344   32.2458 H   0  0  0  0  0  0  0  0  0  0  0  0
   -0.0032   -4.8162   30.0911 H   0  0  0  0  0  0  0  0  0  0  0  0
    1.3797   -5.8900   29.9918 H   0  0  0  0  0  0  0  0  0  0  0  0
   -2.4413   -8.5191   34.4025 H   0  0  0  0  0  0  0  0  0  0  0  0
    0.1781   -5.7540   36.0653 H   0  0  0  0  0  0  0  0  0  0  0  0
    1.0030   -5.0894   33.8623 H   0  0  0  0  0  0  0  0  0  0  0  0
    2.8061   -2.4874   35.6210 H   0  0  0  0  0  0  0  0  0  0  0  0
    2.6208   -4.0983   37.7702 H   0  0  0  0  0  0  0  0  0  0  0  0
  1  2  2  0
  2  3  2  0
  2  4  1  0
  4  5  1  0
  5  6  1  0
  6  7  1  0
  7  8  2  0
  8  9  1  0
  9 10  2  0
 10 11  1  0
 11 12  2  0
 12 13  1  0
 13 14  2  0
 14 15  1  0
  2 16  1  0
 16 17  2  0
 17 18  1  0
 18 19  2  0
 19 20  1  0
 15  7  1  0
 20 16  1  0
 15 10  1  0
  4 21  1  0
  5 22  1  0
  5 23  1  0
  6 24  1  0
  6 25  1  0
 11 26  1  0
 13 27  1  0
 14 28  1  0
 17 29  1  0
 18 30  1  0
M  END
>  <Energy>  (192) 
-42.157671902492382

>  <compound_id>  (192) 
3236

>  <target_id>  (192) 
1

>  <reference_id>  (192) 
164

>  <inspiration_ids>  (192) 
[105, 164]

>  <energy_score>  (192) 
-39.45852995579126

>  <distance_score>  (192) 
1.0172599804151805

>  <path>  (192) 
/opt/xchem-fragalysis-2/maxwin/BulkDock/SCRATCH/505734/C3236-P164/C3236-P164.minimised.mol

>  <scratch_subdir>  (192) 
/opt/xchem-fragalysis-2/maxwin/BulkDock/SCRATCH/505734/C3236-P164

>  <fragmenstein_runtime>  (192) 
0.8396832942962646

>  <fragmenstein_outcome>  (192) 
too moved

>  <fragmenstein_mode>  (192) 
expansion

>  <fragmenstein_error>  (192) 


$$$$
C3237-P105
     RDKit          3D

 35 37  0  0  0  0  0  0  0  0999 V2000
    5.1849   -4.6789   31.6289 O   0  0  0  0  0  0  0  0  0  0  0  0
    4.2956   -3.6131   32.0232 S   0  0  0  0  0  0  0  0  0  0  0  0
    4.6770   -2.2229   31.9241 O   0  0  0  0  0  0  0  0  0  0  0  0
    2.8525   -3.7683   31.1516 N   0  0  0  0  0  0  0  0  0  0  0  0
    2.3083   -5.1065   30.8663 C   0  0  0  0  0  0  0  0  0  0  0  0
    0.8037   -5.0358   30.5696 C   0  0  0  0  0  0  0  0  0  0  0  0
    0.0465   -6.1791   31.1697 C   0  0  0  0  0  0  0  0  0  0  0  0
   -0.5105   -7.2172   30.5632 N   0  0  0  0  0  0  0  0  0  0  0  0
   -1.1863   -7.9714   31.5108 N   0  0  0  0  0  0  0  0  0  0  0  0
   -0.9975   -7.3737   32.6610 C   0  0  0  0  0  0  0  0  0  0  0  0
   -1.5068   -7.6780   33.9598 C   0  0  0  0  0  0  0  0  0  0  0  0
   -1.2526   -6.9252   34.9961 N   0  0  0  0  0  0  0  0  0  0  0  0
   -0.4711   -5.8042   34.7863 C   0  0  0  0  0  0  0  0  0  0  0  0
    0.0305   -5.4457   33.5922 C   0  0  0  0  0  0  0  0  0  0  0  0
   -0.2416   -6.2519   32.5085 N   0  0  0  0  0  0  0  0  0  0  0  0
    3.7290   -3.9075   33.6809 C   0  0  0  0  0  0  0  0  0  0  0  0
    3.0091   -2.8902   34.3114 C   0  0  0  0  0  0  0  0  0  0  0  0
    2.3560   -3.1550   35.5095 C   0  0  0  0  0  0  0  0  0  0  0  0
    2.4358   -4.4305   36.0578 C   0  0  0  0  0  0  0  0  0  0  0  0
    1.6868   -4.7659   37.1429 O   0  0  0  0  0  0  0  0  0  0  0  0
    3.2225   -5.4233   35.4801 C   0  0  0  0  0  0  0  0  0  0  0  0
    3.8923   -5.1571   34.2876 C   0  0  0  0  0  0  0  0  0  0  0  0
    2.7472   -3.0323   30.4506 H   0  0  0  0  0  0  0  0  0  0  0  0
    2.8291   -5.5235   29.9978 H   0  0  0  0  0  0  0  0  0  0  0  0
    2.4918   -5.7579   31.7249 H   0  0  0  0  0  0  0  0  0  0  0  0
    0.3760   -4.0970   30.9448 H   0  0  0  0  0  0  0  0  0  0  0  0
    0.6504   -5.0182   29.4869 H   0  0  0  0  0  0  0  0  0  0  0  0
   -2.1877   -8.5270   34.0714 H   0  0  0  0  0  0  0  0  0  0  0  0
   -0.3201   -5.1808   35.6616 H   0  0  0  0  0  0  0  0  0  0  0  0
    0.6049   -4.5439   33.4415 H   0  0  0  0  0  0  0  0  0  0  0  0
    2.9051   -1.9117   33.8458 H   0  0  0  0  0  0  0  0  0  0  0  0
    1.7535   -2.3786   35.9722 H   0  0  0  0  0  0  0  0  0  0  0  0
    1.3149   -3.9613   37.5423 H   0  0  0  0  0  0  0  0  0  0  0  0
    3.2854   -6.4040   35.9446 H   0  0  0  0  0  0  0  0  0  0  0  0
    4.4914   -5.9290   33.8172 H   0  0  0  0  0  0  0  0  0  0  0  0
  1  2  2  0
  2  3  2  0
  2  4  1  0
  4  5  1  0
  5  6  1  0
  6  7  1  0
  7  8  2  0
  8  9  1  0
  9 10  2  0
 10 11  1  0
 11 12  2  0
 12 13  1  0
 13 14  2  0
 14 15  1  0
  2 16  1  0
 16 17  2  0
 17 18  1  0
 18 19  2  0
 19 20  1  0
 19 21  1  0
 21 22  2  0
 15  7  1  0
 22 16  1  0
 15 10  1  0
  4 23  1  0
  5 24  1  0
  5 25  1  0
  6 26  1  0
  6 27  1  0
 11 28  1  0
 13 29  1  0
 14 30  1  0
 17 31  1  0
 18 32  1  0
 20 33  1  0
 21 34  1  0
 22 35  1  0
M  END
>  <Energy>  (193) 
-23.132534725141724

>  <compound_id>  (193) 
3237

>  <target_id>  (193) 
1

>  <reference_id>  (193) 
105

>  <inspiration_ids>  (193) 
[105, 165]

>  <energy_score>  (193) 
-30.152019264329283

>  <distance_score>  (193) 
1.2456756577317545

>  <path>  (193) 
/opt/xchem-fragalysis-2/maxwin/BulkDock/SCRATCH/505734/C3237-P105/C3237-P105.minimised.mol

>  <scratch_subdir>  (193) 
/opt/xchem-fragalysis-2/maxwin/BulkDock/SCRATCH/505734/C3237-P105

>  <fragmenstein_runtime>  (193) 
2.3300905227661133

>  <fragmenstein_outcome>  (193) 
too moved

>  <fragmenstein_mode>  (193) 
expansion

>  <fragmenstein_error>  (193) 


$$$$
C3237-P165
     RDKit          3D

 35 37  0  0  0  0  0  0  0  0999 V2000
    5.4657   -4.8509   32.1303 O   0  0  0  0  0  0  0  0  0  0  0  0
    4.2602   -4.0580   32.1775 S   0  0  0  0  0  0  0  0  0  0  0  0
    4.2135   -2.6801   31.7472 O   0  0  0  0  0  0  0  0  0  0  0  0
    3.0235   -4.9192   31.3561 N   0  0  0  0  0  0  0  0  0  0  0  0
    1.8308   -4.1406   30.9504 C   0  0  0  0  0  0  0  0  0  0  0  0
    0.7447   -5.0248   30.3256 C   0  0  0  0  0  0  0  0  0  0  0  0
    0.1079   -6.1104   31.1499 C   0  0  0  0  0  0  0  0  0  0  0  0
   -0.3198   -7.2694   30.6598 N   0  0  0  0  0  0  0  0  0  0  0  0
   -0.9467   -7.9817   31.6601 N   0  0  0  0  0  0  0  0  0  0  0  0
   -0.8665   -7.2489   32.7396 C   0  0  0  0  0  0  0  0  0  0  0  0
   -1.3547   -7.5081   34.0588 C   0  0  0  0  0  0  0  0  0  0  0  0
   -1.2000   -6.6473   35.0282 N   0  0  0  0  0  0  0  0  0  0  0  0
   -0.6150   -5.4393   34.7072 C   0  0  0  0  0  0  0  0  0  0  0  0
   -0.1455   -5.1220   33.4886 C   0  0  0  0  0  0  0  0  0  0  0  0
   -0.2459   -6.0568   32.4799 N   0  0  0  0  0  0  0  0  0  0  0  0
    3.6476   -4.1658   33.8424 C   0  0  0  0  0  0  0  0  0  0  0  0
    3.0095   -3.0590   34.3963 C   0  0  0  0  0  0  0  0  0  0  0  0
    2.2865   -3.2233   35.5701 C   0  0  0  0  0  0  0  0  0  0  0  0
    2.2174   -4.4788   36.1677 C   0  0  0  0  0  0  0  0  0  0  0  0
    1.3462   -4.6189   37.2034 O   0  0  0  0  0  0  0  0  0  0  0  0
    2.9432   -5.5601   35.6799 C   0  0  0  0  0  0  0  0  0  0  0  0
    3.6796   -5.3988   34.5100 C   0  0  0  0  0  0  0  0  0  0  0  0
    2.7905   -5.7649   31.8744 H   0  0  0  0  0  0  0  0  0  0  0  0
    1.4434   -3.5650   31.7890 H   0  0  0  0  0  0  0  0  0  0  0  0
    2.1476   -3.4174   30.1889 H   0  0  0  0  0  0  0  0  0  0  0  0
   -0.0605   -4.3753   29.9598 H   0  0  0  0  0  0  0  0  0  0  0  0
    1.1838   -5.5049   29.4429 H   0  0  0  0  0  0  0  0  0  0  0  0
   -1.9085   -8.4281   34.2541 H   0  0  0  0  0  0  0  0  0  0  0  0
   -0.6106   -4.6995   35.5051 H   0  0  0  0  0  0  0  0  0  0  0  0
    0.2532   -4.1424   33.2895 H   0  0  0  0  0  0  0  0  0  0  0  0
    3.0096   -2.0938   33.8947 H   0  0  0  0  0  0  0  0  0  0  0  0
    1.7287   -2.3910   35.9932 H   0  0  0  0  0  0  0  0  0  0  0  0
    1.2754   -5.5585   37.4478 H   0  0  0  0  0  0  0  0  0  0  0  0
    2.9116   -6.5261   36.1747 H   0  0  0  0  0  0  0  0  0  0  0  0
    4.2324   -6.2368   34.0990 H   0  0  0  0  0  0  0  0  0  0  0  0
  1  2  2  0
  2  3  2  0
  2  4  1  0
  4  5  1  0
  5  6  1  0
  6  7  1  0
  7  8  2  0
  8  9  1  0
  9 10  2  0
 10 11  1  0
 11 12  2  0
 12 13  1  0
 13 14  2  0
 14 15  1  0
  2 16  1  0
 16 17  2  0
 17 18  1  0
 18 19  2  0
 19 20  1  0
 19 21  1  0
 21 22  2  0
 15  7  1  0
 22 16  1  0
 15 10  1  0
  4 23  1  0
  5 24  1  0
  5 25  1  0
  6 26  1  0
  6 27  1  0
 11 28  1  0
 13 29  1  0
 14 30  1  0
 17 31  1  0
 18 32  1  0
 20 33  1  0
 21 34  1  0
 22 35  1  0
M  END
>  <Energy>  (194) 
-17.303832517922963

>  <compound_id>  (194) 
3237

>  <target_id>  (194) 
1

>  <reference_id>  (194) 
165

>  <inspiration_ids>  (194) 
[105, 165]

>  <energy_score>  (194) 
-24.323317057110742

>  <distance_score>  (194) 
1.242943717843335

>  <path>  (194) 
/opt/xchem-fragalysis-2/maxwin/BulkDock/SCRATCH/505734/C3237-P165/C3237-P165.minimised.mol

>  <scratch_subdir>  (194) 
/opt/xchem-fragalysis-2/maxwin/BulkDock/SCRATCH/505734/C3237-P165

>  <fragmenstein_runtime>  (194) 
1.9698123931884766

>  <fragmenstein_outcome>  (194) 
too moved

>  <fragmenstein_mode>  (194) 
expansion

>  <fragmenstein_error>  (194) 


$$$$
C3237-P105
     RDKit          3D

 35 37  0  0  0  0  0  0  0  0999 V2000
    3.0414   -8.8049   35.1708 O   0  0  0  0  0  0  0  0  0  0  0  0
    2.6030   -7.6879   35.9749 S   0  0  0  0  0  0  0  0  0  0  0  0
    3.3679   -6.4656   36.0741 O   0  0  0  0  0  0  0  0  0  0  0  0
    1.0931   -7.2713   35.3959 N   0  0  0  0  0  0  0  0  0  0  0  0
    0.3711   -6.1488   36.0185 C   0  0  0  0  0  0  0  0  0  0  0  0
   -1.0335   -6.0226   35.4167 C   0  0  0  0  0  0  0  0  0  0  0  0
   -1.1234   -6.5913   34.0426 C   0  0  0  0  0  0  0  0  0  0  0  0
   -1.7745   -7.6831   33.6791 N   0  0  0  0  0  0  0  0  0  0  0  0
   -1.4000   -8.0213   32.4041 N   0  0  0  0  0  0  0  0  0  0  0  0
   -0.4904   -7.1495   32.0680 C   0  0  0  0  0  0  0  0  0  0  0  0
    0.3508   -7.1184   30.9352 C   0  0  0  0  0  0  0  0  0  0  0  0
    1.2656   -6.1963   30.7996 N   0  0  0  0  0  0  0  0  0  0  0  0
    1.3756   -5.2230   31.7753 C   0  0  0  0  0  0  0  0  0  0  0  0
    0.6055   -5.1870   32.8687 C   0  0  0  0  0  0  0  0  0  0  0  0
   -0.3217   -6.1938   33.0189 N   0  0  0  0  0  0  0  0  0  0  0  0
    2.2068   -8.2507   37.6028 C   0  0  0  0  0  0  0  0  0  0  0  0
    3.0099   -7.8613   38.6739 C   0  0  0  0  0  0  0  0  0  0  0  0
    2.5776   -8.1140   39.9744 C   0  0  0  0  0  0  0  0  0  0  0  0
    1.3529   -8.7370   40.1867 C   0  0  0  0  0  0  0  0  0  0  0  0
    0.9659   -8.9480   41.4765 O   0  0  0  0  0  0  0  0  0  0  0  0
    0.5611   -9.1475   39.1204 C   0  0  0  0  0  0  0  0  0  0  0  0
    0.9978   -8.9236   37.8206 C   0  0  0  0  0  0  0  0  0  0  0  0
    0.5255   -8.0921   35.1591 H   0  0  0  0  0  0  0  0  0  0  0  0
    0.9339   -5.2260   35.8414 H   0  0  0  0  0  0  0  0  0  0  0  0
    0.2801   -6.2709   37.1015 H   0  0  0  0  0  0  0  0  0  0  0  0
   -1.3469   -4.9750   35.4412 H   0  0  0  0  0  0  0  0  0  0  0  0
   -1.7244   -6.5787   36.0532 H   0  0  0  0  0  0  0  0  0  0  0  0
    0.2445   -7.9018   30.1696 H   0  0  0  0  0  0  0  0  0  0  0  0
    2.1383   -4.4656   31.6077 H   0  0  0  0  0  0  0  0  0  0  0  0
    0.7026   -4.4320   33.6356 H   0  0  0  0  0  0  0  0  0  0  0  0
    3.9431   -7.3266   38.5104 H   0  0  0  0  0  0  0  0  0  0  0  0
    3.1835   -7.8067   40.8230 H   0  0  0  0  0  0  0  0  0  0  0  0
    0.1307   -9.4462   41.4797 H   0  0  0  0  0  0  0  0  0  0  0  0
   -0.3775   -9.6688   39.2888 H   0  0  0  0  0  0  0  0  0  0  0  0
    0.3746   -9.2652   36.9972 H   0  0  0  0  0  0  0  0  0  0  0  0
  1  2  2  0
  2  3  2  0
  2  4  1  0
  4  5  1  0
  5  6  1  0
  6  7  1  0
  7  8  2  0
  8  9  1  0
  9 10  2  0
 10 11  1  0
 11 12  2  0
 12 13  1  0
 13 14  2  0
 14 15  1  0
  2 16  1  0
 16 17  2  0
 17 18  1  0
 18 19  2  0
 19 20  1  0
 19 21  1  0
 21 22  2  0
 15  7  1  0
 22 16  1  0
 15 10  1  0
  4 23  1  0
  5 24  1  0
  5 25  1  0
  6 26  1  0
  6 27  1  0
 11 28  1  0
 13 29  1  0
 14 30  1  0
 17 31  1  0
 18 32  1  0
 20 33  1  0
 21 34  1  0
 22 35  1  0
M  END
>  <Energy>  (195) 
-16.224120682406333

>  <compound_id>  (195) 
3237

>  <target_id>  (195) 
1

>  <reference_id>  (195) 
105

>  <inspiration_ids>  (195) 
[105, 166]

>  <energy_score>  (195) 
-23.243605221593867

>  <distance_score>  (195) 
2.1681674207059234

>  <path>  (195) 
/opt/xchem-fragalysis-2/maxwin/BulkDock/SCRATCH/505734/C3237-P105/C3237-P105.minimised.mol

>  <scratch_subdir>  (195) 
/opt/xchem-fragalysis-2/maxwin/BulkDock/SCRATCH/505734/C3237-P105

>  <fragmenstein_runtime>  (195) 
1.9146480560302734

>  <fragmenstein_outcome>  (195) 
too moved

>  <fragmenstein_mode>  (195) 
expansion

>  <fragmenstein_error>  (195) 


$$$$
C3237-P166
     RDKit          3D

 35 37  0  0  0  0  0  0  0  0999 V2000
    2.5389   -8.4628   34.9929 O   0  0  0  0  0  0  0  0  0  0  0  0
    2.7871   -7.2989   35.8152 S   0  0  0  0  0  0  0  0  0  0  0  0
    4.1277   -6.8139   36.0567 O   0  0  0  0  0  0  0  0  0  0  0  0
    1.9740   -5.9730   35.0728 N   0  0  0  0  0  0  0  0  0  0  0  0
    2.4790   -5.7136   33.6916 C   0  0  0  0  0  0  0  0  0  0  0  0
    1.5224   -5.0729   32.6650 C   0  0  0  0  0  0  0  0  0  0  0  0
    0.3915   -5.9904   32.3494 C   0  0  0  0  0  0  0  0  0  0  0  0
    0.1856   -6.8170   31.3357 N   0  0  0  0  0  0  0  0  0  0  0  0
   -0.8013   -7.7238   31.7203 N   0  0  0  0  0  0  0  0  0  0  0  0
   -1.1353   -7.3971   32.9445 C   0  0  0  0  0  0  0  0  0  0  0  0
   -1.9672   -8.0334   33.9074 C   0  0  0  0  0  0  0  0  0  0  0  0
   -2.1712   -7.5069   35.0886 N   0  0  0  0  0  0  0  0  0  0  0  0
   -1.5642   -6.2979   35.3690 C   0  0  0  0  0  0  0  0  0  0  0  0
   -0.8027   -5.6289   34.5033 C   0  0  0  0  0  0  0  0  0  0  0  0
   -0.5398   -6.2351   33.3037 N   0  0  0  0  0  0  0  0  0  0  0  0
    2.0139   -7.5291   37.3811 C   0  0  0  0  0  0  0  0  0  0  0  0
    2.5466   -8.4932   38.2436 C   0  0  0  0  0  0  0  0  0  0  0  0
    1.9766   -8.6725   39.5034 C   0  0  0  0  0  0  0  0  0  0  0  0
    0.8861   -7.8965   39.8834 C   0  0  0  0  0  0  0  0  0  0  0  0
    0.3586   -8.1091   41.1233 O   0  0  0  0  0  0  0  0  0  0  0  0
    0.3585   -6.9303   39.0314 C   0  0  0  0  0  0  0  0  0  0  0  0
    0.9346   -6.7400   37.7789 C   0  0  0  0  0  0  0  0  0  0  0  0
    2.1574   -5.1543   35.6610 H   0  0  0  0  0  0  0  0  0  0  0  0
    3.3766   -5.0899   33.7729 H   0  0  0  0  0  0  0  0  0  0  0  0
    2.7616   -6.6613   33.2609 H   0  0  0  0  0  0  0  0  0  0  0  0
    2.0776   -4.8751   31.7403 H   0  0  0  0  0  0  0  0  0  0  0  0
    1.1574   -4.1069   33.0303 H   0  0  0  0  0  0  0  0  0  0  0  0
   -2.4725   -8.9622   33.6330 H   0  0  0  0  0  0  0  0  0  0  0  0
   -1.7585   -5.8724   36.3477 H   0  0  0  0  0  0  0  0  0  0  0  0
   -0.3518   -4.6753   34.7351 H   0  0  0  0  0  0  0  0  0  0  0  0
    3.3925   -9.1055   37.9425 H   0  0  0  0  0  0  0  0  0  0  0  0
    2.3679   -9.4257   40.1808 H   0  0  0  0  0  0  0  0  0  0  0  0
   -0.4429   -7.5684   41.2188 H   0  0  0  0  0  0  0  0  0  0  0  0
   -0.4880   -6.3199   39.3322 H   0  0  0  0  0  0  0  0  0  0  0  0
    0.5297   -5.9700   37.1374 H   0  0  0  0  0  0  0  0  0  0  0  0
  1  2  2  0
  2  3  2  0
  2  4  1  0
  4  5  1  0
  5  6  1  0
  6  7  1  0
  7  8  2  0
  8  9  1  0
  9 10  2  0
 10 11  1  0
 11 12  2  0
 12 13  1  0
 13 14  2  0
 14 15  1  0
  2 16  1  0
 16 17  2  0
 17 18  1  0
 18 19  2  0
 19 20  1  0
 19 21  1  0
 21 22  2  0
 15  7  1  0
 22 16  1  0
 15 10  1  0
  4 23  1  0
  5 24  1  0
  5 25  1  0
  6 26  1  0
  6 27  1  0
 11 28  1  0
 13 29  1  0
 14 30  1  0
 17 31  1  0
 18 32  1  0
 20 33  1  0
 21 34  1  0
 22 35  1  0
M  END
>  <Energy>  (196) 
-8.4671842547444687

>  <compound_id>  (196) 
3237

>  <target_id>  (196) 
1

>  <reference_id>  (196) 
166

>  <inspiration_ids>  (196) 
[105, 166]

>  <energy_score>  (196) 
-15.486668793932864

>  <distance_score>  (196) 
1.9468123713179506

>  <path>  (196) 
/opt/xchem-fragalysis-2/maxwin/BulkDock/SCRATCH/505734/C3237-P166/C3237-P166.minimised.mol

>  <scratch_subdir>  (196) 
/opt/xchem-fragalysis-2/maxwin/BulkDock/SCRATCH/505734/C3237-P166

>  <fragmenstein_runtime>  (196) 
2.0808565616607666

>  <fragmenstein_outcome>  (196) 
too moved

>  <fragmenstein_mode>  (196) 
expansion

>  <fragmenstein_error>  (196) 


$$$$
C3240-P105
     RDKit          3D

 30 32  0  0  0  0  0  0  0  0999 V2000
    5.7244   -7.5595   18.8307 O   0  0  0  0  0  0  0  0  0  0  0  0
    4.5759   -6.7365   18.4283 S   0  0  0  0  0  0  0  0  0  0  0  0
    4.9430   -5.7979   17.3430 O   0  0  0  0  0  0  0  0  0  0  0  0
    3.1741   -5.4673   19.9019 N   0  0  0  0  0  0  0  0  0  0  0  0
    1.5701   -5.4119   21.0264 C   0  0  0  0  0  0  0  0  0  0  0  0
    1.0036   -5.5192   22.9868 C   0  0  0  0  0  0  0  0  0  0  0  0
    2.1132   -5.9846   24.6478 C   0  0  0  0  0  0  0  0  0  0  0  0
    2.1886   -5.1279   25.6872 N   0  0  0  0  0  0  0  0  0  0  0  0
    3.1122   -5.4367   26.6192 N   0  0  0  0  0  0  0  0  0  0  0  0
    3.7323   -6.4863   26.1824 C   0  0  0  0  0  0  0  0  0  0  0  0
    4.7249   -7.2209   26.8889 C   0  0  0  0  0  0  0  0  0  0  0  0
    5.1288   -8.3858   26.4735 N   0  0  0  0  0  0  0  0  0  0  0  0
    4.5642   -8.8570   25.2974 C   0  0  0  0  0  0  0  0  0  0  0  0
    3.6674   -8.1872   24.5450 C   0  0  0  0  0  0  0  0  0  0  0  0
    3.2372   -6.9373   24.9708 N   0  0  0  0  0  0  0  0  0  0  0  0
    3.8211   -8.1941   17.5462 C   0  0  0  0  0  0  0  0  0  0  0  0
    3.4789   -8.1929   16.2109 C   0  0  0  0  0  0  0  0  0  0  0  0
    1.4089   -8.0186   16.7084 S   0  0  0  0  0  0  0  0  0  0  0  0
    1.9186   -8.7941   18.0848 C   0  0  0  0  0  0  0  0  0  0  0  0
    3.1522   -9.2167   18.1571 N   0  0  0  0  0  0  0  0  0  0  0  0
    3.7910   -4.7586   20.2442 H   0  0  0  0  0  0  0  0  0  0  0  0
    1.3644   -6.4359   20.6516 H   0  0  0  0  0  0  0  0  0  0  0  0
    1.0600   -4.5143   20.6819 H   0  0  0  0  0  0  0  0  0  0  0  0
    0.0139   -5.5171   23.3456 H   0  0  0  0  0  0  0  0  0  0  0  0
    0.9702   -4.3933   23.0515 H   0  0  0  0  0  0  0  0  0  0  0  0
    5.1396   -6.7985   27.8180 H   0  0  0  0  0  0  0  0  0  0  0  0
    4.8873   -9.8498   24.9889 H   0  0  0  0  0  0  0  0  0  0  0  0
    3.2342   -8.6261   23.6586 H   0  0  0  0  0  0  0  0  0  0  0  0
    3.7614   -7.5784   15.3719 H   0  0  0  0  0  0  0  0  0  0  0  0
    1.1884   -8.7367   18.8608 H   0  0  0  0  0  0  0  0  0  0  0  0
  1  2  2  0
  2  3  2  0
  2  4  1  0
  4  5  1  0
  5  6  1  0
  6  7  1  0
  7  8  2  0
  8  9  1  0
  9 10  2  0
 10 11  1  0
 11 12  2  0
 12 13  1  0
 13 14  2  0
 14 15  1  0
  2 16  1  0
 16 17  2  0
 17 18  1  0
 18 19  1  0
 19 20  2  0
 15  7  1  0
 20 16  1  0
 15 10  1  0
  4 21  1  0
  5 22  1  0
  5 23  1  0
  6 24  1  0
  6 25  1  0
 11 26  1  0
 13 27  1  0
 14 28  1  0
 17 29  1  0
 19 30  1  0
M  END
>  <Energy>  (197) 
528.435184713181

>  <compound_id>  (197) 
3240

>  <target_id>  (197) 
1

>  <reference_id>  (197) 
105

>  <inspiration_ids>  (197) 
[105, 177]

>  <energy_score>  (197) 
418.4518363508289

>  <distance_score>  (197) 
9.295838954656649

>  <path>  (197) 
/opt/xchem-fragalysis-2/maxwin/BulkDock/SCRATCH/505734/C3240-P105/C3240-P105.minimised.mol

>  <scratch_subdir>  (197) 
/opt/xchem-fragalysis-2/maxwin/BulkDock/SCRATCH/505734/C3240-P105

>  <fragmenstein_runtime>  (197) 
6.837979793548584

>  <fragmenstein_outcome>  (197) 
too moved

>  <fragmenstein_mode>  (197) 
expansion

>  <fragmenstein_error>  (197) 


$$$$
C3240-P177
     RDKit          3D

 30 32  0  0  0  0  0  0  0  0999 V2000
    0.9557   -1.0444   18.8358 O   0  0  0  0  0  0  0  0  0  0  0  0
    0.7730   -2.4299   18.4997 S   0  0  0  0  0  0  0  0  0  0  0  0
    1.7890   -2.7838   17.4852 O   0  0  0  0  0  0  0  0  0  0  0  0
    0.7646   -4.0440   20.2366 N   0  0  0  0  0  0  0  0  0  0  0  0
    0.9893   -4.2477   22.1031 C   0  0  0  0  0  0  0  0  0  0  0  0
    0.5997   -3.1823   23.3362 C   0  0  0  0  0  0  0  0  0  0  0  0
   -0.0448   -3.1890   24.7098 C   0  0  0  0  0  0  0  0  0  0  0  0
   -1.3135   -2.8767   24.9221 N   0  0  0  0  0  0  0  0  0  0  0  0
   -1.4872   -2.5774   26.2483 N   0  0  0  0  0  0  0  0  0  0  0  0
   -0.3840   -2.8958   26.8655 C   0  0  0  0  0  0  0  0  0  0  0  0
   -0.1197   -2.9879   28.2694 C   0  0  0  0  0  0  0  0  0  0  0  0
    1.0700   -3.2990   28.7183 N   0  0  0  0  0  0  0  0  0  0  0  0
    2.0672   -3.4973   27.7718 C   0  0  0  0  0  0  0  0  0  0  0  0
    1.8787   -3.4366   26.4362 C   0  0  0  0  0  0  0  0  0  0  0  0
    0.6021   -3.1651   25.9594 N   0  0  0  0  0  0  0  0  0  0  0  0
   -1.2780   -2.3992   17.7608 C   0  0  0  0  0  0  0  0  0  0  0  0
   -2.1250   -3.0798   16.3983 C   0  0  0  0  0  0  0  0  0  0  0  0
   -4.1995   -3.9251   16.9940 S   0  0  0  0  0  0  0  0  0  0  0  0
   -3.6475   -2.5376   18.7845 C   0  0  0  0  0  0  0  0  0  0  0  0
   -2.5801   -1.7378   18.4440 N   0  0  0  0  0  0  0  0  0  0  0  0
    0.7435   -3.0841   20.6439 H   0  0  0  0  0  0  0  0  0  0  0  0
    2.0253   -4.2416   22.3124 H   0  0  0  0  0  0  0  0  0  0  0  0
    0.6707   -5.2849   22.2065 H   0  0  0  0  0  0  0  0  0  0  0  0
    1.6038   -2.9179   23.6694 H   0  0  0  0  0  0  0  0  0  0  0  0
    0.0136   -2.3913   22.8775 H   0  0  0  0  0  0  0  0  0  0  0  0
   -0.9415   -2.8034   28.9792 H   0  0  0  0  0  0  0  0  0  0  0  0
    3.0534   -3.7229   28.1725 H   0  0  0  0  0  0  0  0  0  0  0  0
    2.6666   -3.6219   25.7194 H   0  0  0  0  0  0  0  0  0  0  0  0
   -1.8151   -3.0337   15.3566 H   0  0  0  0  0  0  0  0  0  0  0  0
   -4.2296   -2.8861   19.5671 H   0  0  0  0  0  0  0  0  0  0  0  0
  1  2  2  0
  2  3  2  0
  2  4  1  0
  4  5  1  0
  5  6  1  0
  6  7  1  0
  7  8  2  0
  8  9  1  0
  9 10  2  0
 10 11  1  0
 11 12  2  0
 12 13  1  0
 13 14  2  0
 14 15  1  0
  2 16  1  0
 16 17  2  0
 17 18  1  0
 18 19  1  0
 19 20  2  0
 15  7  1  0
 20 16  1  0
 15 10  1  0
  4 21  1  0
  5 22  1  0
  5 23  1  0
  6 24  1  0
  6 25  1  0
 11 26  1  0
 13 27  1  0
 14 28  1  0
 17 29  1  0
 19 30  1  0
M  END
>  <Energy>  (198) 
537.96113739048371

>  <compound_id>  (198) 
3240

>  <target_id>  (198) 
1

>  <reference_id>  (198) 
177

>  <inspiration_ids>  (198) 
[105, 177]

>  <energy_score>  (198) 
427.97778902813246

>  <distance_score>  (198) 
8.309388360232798

>  <path>  (198) 
/opt/xchem-fragalysis-2/maxwin/BulkDock/SCRATCH/505734/C3240-P177/C3240-P177.minimised.mol

>  <scratch_subdir>  (198) 
/opt/xchem-fragalysis-2/maxwin/BulkDock/SCRATCH/505734/C3240-P177

>  <fragmenstein_runtime>  (198) 
6.277441024780273

>  <fragmenstein_outcome>  (198) 
too moved

>  <fragmenstein_mode>  (198) 
expansion

>  <fragmenstein_error>  (198) 


$$$$
C3242-P105
     RDKit          3D

 35 37  0  0  0  0  0  0  0  0999 V2000
    0.2386   -7.2658   30.7329 N   0  0  0  0  0  0  0  0  0  0  0  0
    0.5236   -6.5639   31.9085 C   0  0  0  0  0  0  0  0  0  0  0  0
   -0.0505   -7.1231   33.3190 C   0  0  0  0  0  0  0  0  0  0  0  0
   -0.1377   -6.1187   35.1214 C   0  0  0  0  0  0  0  0  0  0  0  0
    0.5114   -4.7148   35.0803 C   0  0  0  0  0  0  0  0  0  0  0  0
    0.7358   -4.2983   36.8774 S   0  0  0  0  0  0  0  0  0  0  0  0
    1.9422   -3.5724   37.2007 O   0  0  0  0  0  0  0  0  0  0  0  0
   -0.5670   -3.9411   37.3919 O   0  0  0  0  0  0  0  0  0  0  0  0
    1.0457   -5.8818   37.4941 N   0  0  0  0  0  0  0  0  0  0  0  0
    2.2322   -6.6785   37.1235 C   0  0  0  0  0  0  0  0  0  0  0  0
    1.9950   -7.8723   36.1470 C   0  0  0  0  0  0  0  0  0  0  0  0
    1.1164   -7.6055   34.9324 C   0  0  0  0  0  0  0  0  0  0  0  0
   -0.5506   -7.9404   34.9658 N   0  0  0  0  0  0  0  0  0  0  0  0
   -1.6173   -6.5241   34.1196 N   0  0  0  0  0  0  0  0  0  0  0  0
   -0.5371   -5.3090   33.5381 C   0  0  0  0  0  0  0  0  0  0  0  0
   -0.6725   -3.4770   33.9381 C   0  0  0  0  0  0  0  0  0  0  0  0
    0.5523   -2.6647   34.4653 N   0  0  0  0  0  0  0  0  0  0  0  0
    2.1845   -3.3175   34.7048 C   0  0  0  0  0  0  0  0  0  0  0  0
    2.5904   -4.8408   34.5199 C   0  0  0  0  0  0  0  0  0  0  0  0
    1.3303   -6.0360   33.9913 N   0  0  0  0  0  0  0  0  0  0  0  0
    1.0720   -4.2863   33.2086 C   0  0  0  0  0  0  0  0  0  0  0  0
    1.0396   -5.2029   31.8503 N   0  0  0  0  0  0  0  0  0  0  0  0
   -0.7330   -7.0890   30.4899 H   0  0  0  0  0  0  0  0  0  0  0  0
    0.3574   -8.2691   30.8585 H   0  0  0  0  0  0  0  0  0  0  0  0
   -0.6121   -8.0755   33.1094 H   0  0  0  0  0  0  0  0  0  0  0  0
   -0.7293   -6.3966   36.0270 H   0  0  0  0  0  0  0  0  0  0  0  0
    0.3144   -6.2626   38.0951 H   0  0  0  0  0  0  0  0  0  0  0  0
    2.6406   -7.0911   38.0548 H   0  0  0  0  0  0  0  0  0  0  0  0
    3.0217   -6.0275   36.7464 H   0  0  0  0  0  0  0  0  0  0  0  0
    2.9623   -8.2529   35.8008 H   0  0  0  0  0  0  0  0  0  0  0  0
    1.5152   -8.6832   36.7090 H   0  0  0  0  0  0  0  0  0  0  0  0
   -1.6399   -2.9532   33.8709 H   0  0  0  0  0  0  0  0  0  0  0  0
    2.8893   -2.5563   35.0429 H   0  0  0  0  0  0  0  0  0  0  0  0
    3.5564   -5.2807   34.7292 H   0  0  0  0  0  0  0  0  0  0  0  0
    1.5040   -3.3399   32.7912 H   0  0  0  0  0  0  0  0  0  0  0  0
  1  2  1  0
  2  3  2  0
  3  4  1  0
  4  5  2  0
  5  6  1  0
  6  7  2  0
  6  8  2  0
  6  9  1  0
  9 10  1  0
 10 11  1  0
 11 12  1  0
 12 13  2  0
 13 14  1  0
 14 15  2  0
 15 16  1  0
 16 17  2  0
 17 18  1  0
 18 19  2  0
 19 20  1  0
  5 21  1  0
 21 22  2  0
 22  2  1  0
 20 12  1  0
 20 15  1  0
  1 23  1  0
  1 24  1  0
  3 25  1  0
  4 26  1  0
  9 27  1  0
 10 28  1  0
 10 29  1  0
 11 30  1  0
 11 31  1  0
 16 32  1  0
 18 33  1  0
 19 34  1  0
 21 35  1  0
M  END
>  <Energy>  (199) 
2116.3777575858517

>  <compound_id>  (199) 
3242

>  <target_id>  (199) 
1

>  <reference_id>  (199) 
105

>  <inspiration_ids>  (199) 
[105, 183]

>  <energy_score>  (199) 
2129.461482000476

>  <distance_score>  (199) 
2.1937591018839275

>  <path>  (199) 
/opt/xchem-fragalysis-2/maxwin/BulkDock/SCRATCH/505734/C3242-P105/C3242-P105.minimised.mol

>  <scratch_subdir>  (199) 
/opt/xchem-fragalysis-2/maxwin/BulkDock/SCRATCH/505734/C3242-P105

>  <fragmenstein_runtime>  (199) 
3.222683906555176

>  <fragmenstein_outcome>  (199) 
too moved

>  <fragmenstein_mode>  (199) 
expansion

>  <fragmenstein_error>  (199) 


$$$$
C3242-P183
     RDKit          3D

 35 37  0  0  0  0  0  0  0  0999 V2000
    1.3416   -5.6723   30.1811 N   0  0  0  0  0  0  0  0  0  0  0  0
    1.0915   -5.2863   31.4938 C   0  0  0  0  0  0  0  0  0  0  0  0
    0.3946   -6.3201   32.5150 C   0  0  0  0  0  0  0  0  0  0  0  0
   -0.2191   -5.9373   34.4498 C   0  0  0  0  0  0  0  0  0  0  0  0
    0.1558   -4.5114   34.9477 C   0  0  0  0  0  0  0  0  0  0  0  0
   -0.0333   -4.6363   36.7973 S   0  0  0  0  0  0  0  0  0  0  0  0
    0.4048   -3.4818   37.5474 O   0  0  0  0  0  0  0  0  0  0  0  0
   -1.3021   -5.2681   37.0761 O   0  0  0  0  0  0  0  0  0  0  0  0
    1.1999   -5.7994   37.1166 N   0  0  0  0  0  0  0  0  0  0  0  0
    1.1329   -7.2315   36.7249 C   0  0  0  0  0  0  0  0  0  0  0  0
    1.9780   -7.5565   35.4534 C   0  0  0  0  0  0  0  0  0  0  0  0
    1.3024   -7.1326   34.1542 C   0  0  0  0  0  0  0  0  0  0  0  0
   -0.2510   -7.6597   33.6988 N   0  0  0  0  0  0  0  0  0  0  0  0
   -1.3791   -6.1848   33.0499 N   0  0  0  0  0  0  0  0  0  0  0  0
   -0.4508   -4.7307   33.1010 C   0  0  0  0  0  0  0  0  0  0  0  0
   -0.9821   -3.1301   33.9304 C   0  0  0  0  0  0  0  0  0  0  0  0
   -0.0437   -2.3767   34.9253 N   0  0  0  0  0  0  0  0  0  0  0  0
    1.5987   -2.8922   35.3738 C   0  0  0  0  0  0  0  0  0  0  0  0
    2.2930   -4.2301   34.8898 C   0  0  0  0  0  0  0  0  0  0  0  0
    1.3957   -5.3358   33.7653 N   0  0  0  0  0  0  0  0  0  0  0  0
    0.9831   -3.4749   33.4498 C   0  0  0  0  0  0  0  0  0  0  0  0
    1.3775   -3.9294   31.9263 N   0  0  0  0  0  0  0  0  0  0  0  0
    1.6876   -4.8439   29.6971 H   0  0  0  0  0  0  0  0  0  0  0  0
    0.4748   -5.9843   29.7474 H   0  0  0  0  0  0  0  0  0  0  0  0
    0.1208   -7.2411   31.9306 H   0  0  0  0  0  0  0  0  0  0  0  0
   -0.8976   -6.5545   35.0844 H   0  0  0  0  0  0  0  0  0  0  0  0
    1.7145   -5.5531   37.9630 H   0  0  0  0  0  0  0  0  0  0  0  0
    0.1010   -7.5841   36.6491 H   0  0  0  0  0  0  0  0  0  0  0  0
    1.5702   -7.7919   37.5612 H   0  0  0  0  0  0  0  0  0  0  0  0
    2.9616   -7.0794   35.5187 H   0  0  0  0  0  0  0  0  0  0  0  0
    2.1510   -8.6317   35.3972 H   0  0  0  0  0  0  0  0  0  0  0  0
   -1.9863   -2.7098   33.7593 H   0  0  0  0  0  0  0  0  0  0  0  0
    2.0675   -2.2039   36.0780 H   0  0  0  0  0  0  0  0  0  0  0  0
    3.2415   -4.6260   35.2270 H   0  0  0  0  0  0  0  0  0  0  0  0
    1.3234   -2.4073   33.4223 H   0  0  0  0  0  0  0  0  0  0  0  0
  1  2  1  0
  2  3  2  0
  3  4  1  0
  4  5  2  0
  5  6  1  0
  6  7  2  0
  6  8  2  0
  6  9  1  0
  9 10  1  0
 10 11  1  0
 11 12  1  0
 12 13  2  0
 13 14  1  0
 14 15  2  0
 15 16  1  0
 16 17  2  0
 17 18  1  0
 18 19  2  0
 19 20  1  0
  5 21  1  0
 21 22  2  0
 22  2  1  0
 20 12  1  0
 20 15  1  0
  1 23  1  0
  1 24  1  0
  3 25  1  0
  4 26  1  0
  9 27  1  0
 10 28  1  0
 10 29  1  0
 11 30  1  0
 11 31  1  0
 16 32  1  0
 18 33  1  0
 19 34  1  0
 21 35  1  0
M  END
>  <Energy>  (200) 
2105.2189952284102

>  <compound_id>  (200) 
3242

>  <target_id>  (200) 
1

>  <reference_id>  (200) 
183

>  <inspiration_ids>  (200) 
[105, 183]

>  <energy_score>  (200) 
2118.3027196430367

>  <distance_score>  (200) 
2.728533608326021

>  <path>  (200) 
/opt/xchem-fragalysis-2/maxwin/BulkDock/SCRATCH/505734/C3242-P183/C3242-P183.minimised.mol

>  <scratch_subdir>  (200) 
/opt/xchem-fragalysis-2/maxwin/BulkDock/SCRATCH/505734/C3242-P183

>  <fragmenstein_runtime>  (200) 
3.454134941101074

>  <fragmenstein_outcome>  (200) 
too moved

>  <fragmenstein_mode>  (200) 
expansion

>  <fragmenstein_error>  (200) 


$$$$
C3242-P105
     RDKit          3D

 35 37  0  0  0  0  0  0  0  0999 V2000
   -3.1469   -2.8349   32.0134 N   0  0  0  0  0  0  0  0  0  0  0  0
   -2.6986   -1.7536   31.1865 C   0  0  0  0  0  0  0  0  0  0  0  0
   -2.1636   -2.0952   29.9428 C   0  0  0  0  0  0  0  0  0  0  0  0
   -0.8544   -1.7372   29.6950 C   0  0  0  0  0  0  0  0  0  0  0  0
   -0.1794   -1.2226   30.7902 C   0  0  0  0  0  0  0  0  0  0  0  0
    0.3564   -2.6188   31.9100 S   0  0  0  0  0  0  0  0  0  0  0  0
    0.6213   -2.0288   33.2019 O   0  0  0  0  0  0  0  0  0  0  0  0
   -0.5836   -3.7192   31.7807 O   0  0  0  0  0  0  0  0  0  0  0  0
    1.8200   -3.0955   31.2889 N   0  0  0  0  0  0  0  0  0  0  0  0
    1.9517   -3.9523   30.1033 C   0  0  0  0  0  0  0  0  0  0  0  0
    1.2310   -5.2984   30.1334 C   0  0  0  0  0  0  0  0  0  0  0  0
    1.2292   -5.9729   31.4509 C   0  0  0  0  0  0  0  0  0  0  0  0
    2.1259   -5.8702   32.4112 N   0  0  0  0  0  0  0  0  0  0  0  0
    1.6012   -6.4276   33.5579 N   0  0  0  0  0  0  0  0  0  0  0  0
    0.4123   -6.8667   33.2482 C   0  0  0  0  0  0  0  0  0  0  0  0
   -0.5827   -7.4843   34.0569 C   0  0  0  0  0  0  0  0  0  0  0  0
   -1.6532   -7.9886   33.5115 N   0  0  0  0  0  0  0  0  0  0  0  0
   -1.7769   -7.9363   32.1392 C   0  0  0  0  0  0  0  0  0  0  0  0
   -0.9202   -7.3003   31.3271 C   0  0  0  0  0  0  0  0  0  0  0  0
    0.1882   -6.7292   31.9115 N   0  0  0  0  0  0  0  0  0  0  0  0
   -0.9372   -0.3908   31.5959 C   0  0  0  0  0  0  0  0  0  0  0  0
   -2.2281   -0.6854   31.8455 N   0  0  0  0  0  0  0  0  0  0  0  0
   -2.2934   -3.3554   32.2467 H   0  0  0  0  0  0  0  0  0  0  0  0
   -3.4464   -2.4194   32.8977 H   0  0  0  0  0  0  0  0  0  0  0  0
   -2.6080   -2.8508   29.3157 H   0  0  0  0  0  0  0  0  0  0  0  0
   -0.3330   -2.1708   28.8486 H   0  0  0  0  0  0  0  0  0  0  0  0
    2.4788   -3.2924   32.0497 H   0  0  0  0  0  0  0  0  0  0  0  0
    3.0268   -4.1477   29.9929 H   0  0  0  0  0  0  0  0  0  0  0  0
    1.6625   -3.3920   29.2086 H   0  0  0  0  0  0  0  0  0  0  0  0
    0.2014   -5.1379   29.7948 H   0  0  0  0  0  0  0  0  0  0  0  0
    1.7040   -5.9611   29.4009 H   0  0  0  0  0  0  0  0  0  0  0  0
   -0.4420   -7.5383   35.1478 H   0  0  0  0  0  0  0  0  0  0  0  0
   -2.6806   -8.3962   31.7662 H   0  0  0  0  0  0  0  0  0  0  0  0
   -1.0495   -7.2165   30.2584 H   0  0  0  0  0  0  0  0  0  0  0  0
   -0.4799    0.3238   32.2736 H   0  0  0  0  0  0  0  0  0  0  0  0
  1  2  1  0
  2  3  2  0
  3  4  1  0
  4  5  2  0
  5  6  1  0
  6  7  2  0
  6  8  2  0
  6  9  1  0
  9 10  1  0
 10 11  1  0
 11 12  1  0
 12 13  2  0
 13 14  1  0
 14 15  2  0
 15 16  1  0
 16 17  2  0
 17 18  1  0
 18 19  2  0
 19 20  1  0
  5 21  1  0
 21 22  2  0
 22  2  1  0
 20 12  1  0
 20 15  1  0
  1 23  1  0
  1 24  1  0
  3 25  1  0
  4 26  1  0
  9 27  1  0
 10 28  1  0
 10 29  1  0
 11 30  1  0
 11 31  1  0
 16 32  1  0
 18 33  1  0
 19 34  1  0
 21 35  1  0
M  END
>  <Energy>  (201) 
5.9059288659950022

>  <compound_id>  (201) 
3242

>  <target_id>  (201) 
1

>  <reference_id>  (201) 
105

>  <inspiration_ids>  (201) 
[105, 186]

>  <energy_score>  (201) 
34.65665369252443

>  <distance_score>  (201) 
2.0193819350357685

>  <path>  (201) 
/opt/xchem-fragalysis-2/maxwin/BulkDock/SCRATCH/505734/C3242-P105/C3242-P105.minimised.mol

>  <scratch_subdir>  (201) 
/opt/xchem-fragalysis-2/maxwin/BulkDock/SCRATCH/505734/C3242-P105

>  <fragmenstein_runtime>  (201) 
10.462677001953125

>  <fragmenstein_outcome>  (201) 
too moved

>  <fragmenstein_mode>  (201) 
expansion

>  <fragmenstein_error>  (201) 


$$$$
C3242-P186
     RDKit          3D

 35 37  0  0  0  0  0  0  0  0999 V2000
   -0.5012   -3.6942   28.7334 N   0  0  0  0  0  0  0  0  0  0  0  0
   -0.3613   -2.2692   28.4807 C   0  0  0  0  0  0  0  0  0  0  0  0
   -1.5228   -1.5690   28.7157 C   0  0  0  0  0  0  0  0  0  0  0  0
   -1.5869   -0.9994   29.9837 C   0  0  0  0  0  0  0  0  0  0  0  0
   -0.4516   -1.0683   30.7820 C   0  0  0  0  0  0  0  0  0  0  0  0
   -0.5363   -2.4213   32.0029 S   0  0  0  0  0  0  0  0  0  0  0  0
   -0.8468   -1.7764   33.2575 O   0  0  0  0  0  0  0  0  0  0  0  0
   -1.3886   -3.4719   31.4659 O   0  0  0  0  0  0  0  0  0  0  0  0
    1.0008   -3.0529   32.1630 N   0  0  0  0  0  0  0  0  0  0  0  0
    1.8094   -3.7807   31.1567 C   0  0  0  0  0  0  0  0  0  0  0  0
    1.3925   -5.2045   30.8323 C   0  0  0  0  0  0  0  0  0  0  0  0
    1.2200   -5.9998   32.0559 C   0  0  0  0  0  0  0  0  0  0  0  0
    1.9952   -6.0149   33.1209 N   0  0  0  0  0  0  0  0  0  0  0  0
    1.3205   -6.6551   34.1341 N   0  0  0  0  0  0  0  0  0  0  0  0
    0.1740   -7.0239   33.6348 C   0  0  0  0  0  0  0  0  0  0  0  0
   -0.9277   -7.6729   34.2477 C   0  0  0  0  0  0  0  0  0  0  0  0
   -1.9117   -8.1146   33.5184 N   0  0  0  0  0  0  0  0  0  0  0  0
   -1.8308   -7.9841   32.1466 C   0  0  0  0  0  0  0  0  0  0  0  0
   -0.8684   -7.3016   31.5144 C   0  0  0  0  0  0  0  0  0  0  0  0
    0.1335   -6.7794   32.2970 N   0  0  0  0  0  0  0  0  0  0  0  0
    0.7193   -1.0698   30.0865 C   0  0  0  0  0  0  0  0  0  0  0  0
    0.7780   -1.7108   28.9044 N   0  0  0  0  0  0  0  0  0  0  0  0
   -1.1975   -4.0336   28.0557 H   0  0  0  0  0  0  0  0  0  0  0  0
   -0.9361   -3.7929   29.6522 H   0  0  0  0  0  0  0  0  0  0  0  0
   -2.4175   -1.8025   28.1537 H   0  0  0  0  0  0  0  0  0  0  0  0
   -2.5330   -0.7547   30.4476 H   0  0  0  0  0  0  0  0  0  0  0  0
    1.3169   -3.1220   33.1339 H   0  0  0  0  0  0  0  0  0  0  0  0
    1.9436   -3.2288   30.2350 H   0  0  0  0  0  0  0  0  0  0  0  0
    2.8232   -3.8152   31.5825 H   0  0  0  0  0  0  0  0  0  0  0  0
    0.4702   -5.2169   30.2594 H   0  0  0  0  0  0  0  0  0  0  0  0
    2.1565   -5.6666   30.1978 H   0  0  0  0  0  0  0  0  0  0  0  0
   -0.9470   -7.8001   35.3415 H   0  0  0  0  0  0  0  0  0  0  0  0
   -2.6589   -8.4246   31.6109 H   0  0  0  0  0  0  0  0  0  0  0  0
   -0.8277   -7.1579   30.4447 H   0  0  0  0  0  0  0  0  0  0  0  0
    1.6748   -0.8226   30.5357 H   0  0  0  0  0  0  0  0  0  0  0  0
  1  2  1  0
  2  3  2  0
  3  4  1  0
  4  5  2  0
  5  6  1  0
  6  7  2  0
  6  8  2  0
  6  9  1  0
  9 10  1  0
 10 11  1  0
 11 12  1  0
 12 13  2  0
 13 14  1  0
 14 15  2  0
 15 16  1  0
 16 17  2  0
 17 18  1  0
 18 19  2  0
 19 20  1  0
  5 21  1  0
 21 22  2  0
 22  2  1  0
 20 12  1  0
 20 15  1  0
  1 23  1  0
  1 24  1  0
  3 25  1  0
  4 26  1  0
  9 27  1  0
 10 28  1  0
 10 29  1  0
 11 30  1  0
 11 31  1  0
 16 32  1  0
 18 33  1  0
 19 34  1  0
 21 35  1  0
M  END
>  <Energy>  (202) 
15.441433372488525

>  <compound_id>  (202) 
3242

>  <target_id>  (202) 
1

>  <reference_id>  (202) 
186

>  <inspiration_ids>  (202) 
[105, 186]

>  <energy_score>  (202) 
44.192158199015324

>  <distance_score>  (202) 
2.120841759220834

>  <path>  (202) 
/opt/xchem-fragalysis-2/maxwin/BulkDock/SCRATCH/505734/C3242-P186/C3242-P186.minimised.mol

>  <scratch_subdir>  (202) 
/opt/xchem-fragalysis-2/maxwin/BulkDock/SCRATCH/505734/C3242-P186

>  <fragmenstein_runtime>  (202) 
10.200751066207886

>  <fragmenstein_outcome>  (202) 
too moved

>  <fragmenstein_mode>  (202) 
expansion

>  <fragmenstein_error>  (202) 


$$$$
C3244-P105
     RDKit          3D

 37 39  0  0  0  0  0  0  0  0999 V2000
   -2.0988   -3.2413   31.3498 O   0  0  0  0  0  0  0  0  0  0  0  0
   -1.0331   -2.2672   31.4220 S   0  0  0  0  0  0  0  0  0  0  0  0
   -0.8308   -1.4677   32.6056 O   0  0  0  0  0  0  0  0  0  0  0  0
    0.4147   -3.0761   31.1635 N   0  0  0  0  0  0  0  0  0  0  0  0
    0.4481   -4.1574   30.1536 C   0  0  0  0  0  0  0  0  0  0  0  0
    1.4628   -5.2476   30.5090 C   0  0  0  0  0  0  0  0  0  0  0  0
    1.2513   -5.7706   31.8803 C   0  0  0  0  0  0  0  0  0  0  0  0
    1.9523   -5.4108   32.9403 N   0  0  0  0  0  0  0  0  0  0  0  0
    1.3429   -5.9172   34.0619 N   0  0  0  0  0  0  0  0  0  0  0  0
    0.2924   -6.5727   33.6491 C   0  0  0  0  0  0  0  0  0  0  0  0
   -0.7160   -7.2216   34.4131 C   0  0  0  0  0  0  0  0  0  0  0  0
   -1.6747   -7.8619   33.8117 N   0  0  0  0  0  0  0  0  0  0  0  0
   -1.6516   -7.9351   32.4272 C   0  0  0  0  0  0  0  0  0  0  0  0
   -0.7604   -7.3033   31.6470 C   0  0  0  0  0  0  0  0  0  0  0  0
    0.2252   -6.5837   32.2833 N   0  0  0  0  0  0  0  0  0  0  0  0
   -1.0896   -1.2343   30.1065 N   0  0  0  0  0  0  0  0  0  0  0  0
   -1.5069   -1.7837   28.7878 C   0  0  0  0  0  0  0  0  0  0  0  0
   -1.7258   -0.6479   27.7888 C   0  0  0  0  0  0  0  0  0  0  0  0
   -0.5311    0.1301   27.6339 O   0  0  0  0  0  0  0  0  0  0  0  0
   -0.2076    0.7526   28.8804 C   0  0  0  0  0  0  0  0  0  0  0  0
    0.0551   -0.2860   29.9750 C   0  0  0  0  0  0  0  0  0  0  0  0
    0.7905   -3.3322   32.0843 H   0  0  0  0  0  0  0  0  0  0  0  0
    0.7356   -3.7293   29.1895 H   0  0  0  0  0  0  0  0  0  0  0  0
   -0.5362   -4.6168   30.0399 H   0  0  0  0  0  0  0  0  0  0  0  0
    2.4752   -4.8292   30.4461 H   0  0  0  0  0  0  0  0  0  0  0  0
    1.4157   -6.0623   29.7803 H   0  0  0  0  0  0  0  0  0  0  0  0
   -0.6885   -7.1680   35.5127 H   0  0  0  0  0  0  0  0  0  0  0  0
   -2.4520   -8.5197   31.9910 H   0  0  0  0  0  0  0  0  0  0  0  0
   -0.7749   -7.3352   30.5674 H   0  0  0  0  0  0  0  0  0  0  0  0
   -2.4330   -2.3410   28.9114 H   0  0  0  0  0  0  0  0  0  0  0  0
   -0.7319   -2.4432   28.3955 H   0  0  0  0  0  0  0  0  0  0  0  0
   -2.0190   -1.0414   26.8151 H   0  0  0  0  0  0  0  0  0  0  0  0
   -2.5141    0.0247   28.1206 H   0  0  0  0  0  0  0  0  0  0  0  0
    0.6882    1.3625   28.7263 H   0  0  0  0  0  0  0  0  0  0  0  0
   -1.0210    1.4258   29.1532 H   0  0  0  0  0  0  0  0  0  0  0  0
    0.9541   -0.8546   29.7098 H   0  0  0  0  0  0  0  0  0  0  0  0
    0.2309    0.2355   30.9209 H   0  0  0  0  0  0  0  0  0  0  0  0
  1  2  2  0
  2  3  2  0
  2  4  1  0
  4  5  1  0
  5  6  1  0
  6  7  1  0
  7  8  2  0
  8  9  1  0
  9 10  2  0
 10 11  1  0
 11 12  2  0
 12 13  1  0
 13 14  2  0
 14 15  1  0
  2 16  1  0
 16 17  1  0
 17 18  1  0
 18 19  1  0
 19 20  1  0
 20 21  1  0
 15  7  1  0
 21 16  1  0
 15 10  1  0
  4 22  1  0
  5 23  1  0
  5 24  1  0
  6 25  1  0
  6 26  1  0
 11 27  1  0
 13 28  1  0
 14 29  1  0
 17 30  1  0
 17 31  1  0
 18 32  1  0
 18 33  1  0
 20 34  1  0
 20 35  1  0
 21 36  1  0
 21 37  1  0
M  END
>  <Energy>  (203) 
-112.51997082566214

>  <compound_id>  (203) 
3244

>  <target_id>  (203) 
1

>  <reference_id>  (203) 
105

>  <inspiration_ids>  (203) 
[105, 189]

>  <energy_score>  (203) 
-52.148033818275564

>  <distance_score>  (203) 
1.0971181772558494

>  <path>  (203) 
/opt/xchem-fragalysis-2/maxwin/BulkDock/SCRATCH/505734/C3244-P105/C3244-P105.minimised.mol

>  <scratch_subdir>  (203) 
/opt/xchem-fragalysis-2/maxwin/BulkDock/SCRATCH/505734/C3244-P105

>  <fragmenstein_runtime>  (203) 
9.177106857299805

>  <fragmenstein_outcome>  (203) 
too moved

>  <fragmenstein_mode>  (203) 
expansion

>  <fragmenstein_error>  (203) 


$$$$
C3244-P189
     RDKit          3D

 37 39  0  0  0  0  0  0  0  0999 V2000
   -2.1914   -3.3361   31.3982 O   0  0  0  0  0  0  0  0  0  0  0  0
   -1.1927   -2.2911   31.4334 S   0  0  0  0  0  0  0  0  0  0  0  0
   -0.9774   -1.5005   32.6205 O   0  0  0  0  0  0  0  0  0  0  0  0
    0.2915   -2.9871   31.0714 N   0  0  0  0  0  0  0  0  0  0  0  0
    0.3325   -4.0706   30.0642 C   0  0  0  0  0  0  0  0  0  0  0  0
    1.3445   -5.1630   30.4226 C   0  0  0  0  0  0  0  0  0  0  0  0
    1.1559   -5.6642   31.8066 C   0  0  0  0  0  0  0  0  0  0  0  0
    1.8594   -5.2702   32.8529 N   0  0  0  0  0  0  0  0  0  0  0  0
    1.2795   -5.7803   33.9890 N   0  0  0  0  0  0  0  0  0  0  0  0
    0.2428   -6.4710   33.5987 C   0  0  0  0  0  0  0  0  0  0  0  0
   -0.7291   -7.1517   34.3831 C   0  0  0  0  0  0  0  0  0  0  0  0
   -1.6529   -7.8606   33.8035 N   0  0  0  0  0  0  0  0  0  0  0  0
   -1.6391   -7.9511   32.4179 C   0  0  0  0  0  0  0  0  0  0  0  0
   -0.7895   -7.2849   31.6199 C   0  0  0  0  0  0  0  0  0  0  0  0
    0.1639   -6.5067   32.2342 N   0  0  0  0  0  0  0  0  0  0  0  0
   -1.4089   -1.2426   30.1499 N   0  0  0  0  0  0  0  0  0  0  0  0
   -1.8118   -1.7952   28.8268 C   0  0  0  0  0  0  0  0  0  0  0  0
   -2.2244   -0.6643   27.8788 C   0  0  0  0  0  0  0  0  0  0  0  0
   -1.1816    0.3126   27.7414 O   0  0  0  0  0  0  0  0  0  0  0  0
   -0.8971    0.8978   29.0160 C   0  0  0  0  0  0  0  0  0  0  0  0
   -0.3971   -0.1582   30.0053 C   0  0  0  0  0  0  0  0  0  0  0  0
    0.7476   -3.2111   31.9644 H   0  0  0  0  0  0  0  0  0  0  0  0
    0.6173   -3.6382   29.1001 H   0  0  0  0  0  0  0  0  0  0  0  0
   -0.6496   -4.5309   29.9395 H   0  0  0  0  0  0  0  0  0  0  0  0
    2.3586   -4.7530   30.3362 H   0  0  0  0  0  0  0  0  0  0  0  0
    1.2784   -5.9866   29.7043 H   0  0  0  0  0  0  0  0  0  0  0  0
   -0.6970   -7.0730   35.4812 H   0  0  0  0  0  0  0  0  0  0  0  0
   -2.4078   -8.5845   31.9906 H   0  0  0  0  0  0  0  0  0  0  0  0
   -0.8105   -7.3352   30.5416 H   0  0  0  0  0  0  0  0  0  0  0  0
   -2.6569   -2.4708   28.9621 H   0  0  0  0  0  0  0  0  0  0  0  0
   -0.9719   -2.3339   28.3856 H   0  0  0  0  0  0  0  0  0  0  0  0
   -2.4662   -1.0581   26.8904 H   0  0  0  0  0  0  0  0  0  0  0  0
   -3.1179   -0.1566   28.2423 H   0  0  0  0  0  0  0  0  0  0  0  0
   -0.1300    1.6641   28.8682 H   0  0  0  0  0  0  0  0  0  0  0  0
   -1.8004    1.3919   29.3880 H   0  0  0  0  0  0  0  0  0  0  0  0
    0.5379   -0.5924   29.6326 H   0  0  0  0  0  0  0  0  0  0  0  0
   -0.2083    0.3252   30.9684 H   0  0  0  0  0  0  0  0  0  0  0  0
  1  2  2  0
  2  3  2  0
  2  4  1  0
  4  5  1  0
  5  6  1  0
  6  7  1  0
  7  8  2  0
  8  9  1  0
  9 10  2  0
 10 11  1  0
 11 12  2  0
 12 13  1  0
 13 14  2  0
 14 15  1  0
  2 16  1  0
 16 17  1  0
 17 18  1  0
 18 19  1  0
 19 20  1  0
 20 21  1  0
 15  7  1  0
 21 16  1  0
 15 10  1  0
  4 22  1  0
  5 23  1  0
  5 24  1  0
  6 25  1  0
  6 26  1  0
 11 27  1  0
 13 28  1  0
 14 29  1  0
 17 30  1  0
 17 31  1  0
 18 32  1  0
 18 33  1  0
 20 34  1  0
 20 35  1  0
 21 36  1  0
 21 37  1  0
M  END
>  <Energy>  (204) 
-113.12493900308893

>  <compound_id>  (204) 
3244

>  <target_id>  (204) 
1

>  <reference_id>  (204) 
189

>  <inspiration_ids>  (204) 
[105, 189]

>  <energy_score>  (204) 
-52.75300199570367

>  <distance_score>  (204) 
1.0147336133433134

>  <path>  (204) 
/opt/xchem-fragalysis-2/maxwin/BulkDock/SCRATCH/505734/C3244-P189/C3244-P189.minimised.mol

>  <scratch_subdir>  (204) 
/opt/xchem-fragalysis-2/maxwin/BulkDock/SCRATCH/505734/C3244-P189

>  <fragmenstein_runtime>  (204) 
9.425883769989014

>  <fragmenstein_outcome>  (204) 
too moved

>  <fragmenstein_mode>  (204) 
expansion

>  <fragmenstein_error>  (204) 


$$$$
C3246-P105
     RDKit          3D

 21 23  0  0  0  0  0  0  0  0999 V2000
    1.1330   -5.0344   35.4376 O   0  0  0  0  0  0  0  0  0  0  0  0
    0.3587   -5.8771   35.0259 C   0  0  0  0  0  0  0  0  0  0  0  0
   -0.4986   -6.7417   35.9396 C   0  0  0  0  0  0  0  0  0  0  0  0
   -1.2502   -7.5727   34.9534 C   0  0  0  0  0  0  0  0  0  0  0  0
   -0.8754   -7.2633   33.7137 C   0  0  0  0  0  0  0  0  0  0  0  0
   -1.3368   -7.8122   32.4727 C   0  0  0  0  0  0  0  0  0  0  0  0
   -0.9777   -7.2195   31.3252 C   0  0  0  0  0  0  0  0  0  0  0  0
   -1.4893   -7.7140   30.1466 O   0  0  0  0  0  0  0  0  0  0  0  0
   -0.1357   -6.0936   31.3812 N   0  0  0  0  0  0  0  0  0  0  0  0
    0.2343   -5.1723   30.4329 C   0  0  0  0  0  0  0  0  0  0  0  0
    1.1188   -4.3240   31.0510 C   0  0  0  0  0  0  0  0  0  0  0  0
    1.2655   -4.6592   32.3666 N   0  0  0  0  0  0  0  0  0  0  0  0
    0.4394   -5.6595   32.5711 C   0  0  0  0  0  0  0  0  0  0  0  0
    0.0538   -6.2667   33.7416 N   0  0  0  0  0  0  0  0  0  0  0  0
    0.1350   -7.3569   36.5828 H   0  0  0  0  0  0  0  0  0  0  0  0
   -1.1689   -6.1100   36.5268 H   0  0  0  0  0  0  0  0  0  0  0  0
   -1.9827   -8.3112   35.2323 H   0  0  0  0  0  0  0  0  0  0  0  0
   -2.0098   -8.6596   32.4805 H   0  0  0  0  0  0  0  0  0  0  0  0
   -1.1848   -7.1618   29.4011 H   0  0  0  0  0  0  0  0  0  0  0  0
   -0.1586   -5.1638   29.4321 H   0  0  0  0  0  0  0  0  0  0  0  0
    1.6393   -3.4751   30.6246 H   0  0  0  0  0  0  0  0  0  0  0  0
  1  2  2  0
  2  3  1  0
  3  4  1  0
  4  5  2  0
  5  6  1  0
  6  7  2  0
  7  8  1  0
  7  9  1  0
  9 10  1  0
 10 11  2  0
 11 12  1  0
 12 13  2  0
 13 14  1  0
 14  2  1  0
 14  5  1  0
 13  9  1  0
  3 15  1  0
  3 16  1  0
  4 17  1  0
  6 18  1  0
  8 19  1  0
 10 20  1  0
 11 21  1  0
M  END
>  <Energy>  (205) 
42.551865178990376

>  <compound_id>  (205) 
3246

>  <target_id>  (205) 
1

>  <reference_id>  (205) 
105

>  <inspiration_ids>  (205) 
[105, 194]

>  <energy_score>  (205) 
-19.190069157464592

>  <distance_score>  (205) 
1.992372542010915

>  <path>  (205) 
/opt/xchem-fragalysis-2/maxwin/BulkDock/SCRATCH/505734/C3246-P105/C3246-P105.minimised.mol

>  <scratch_subdir>  (205) 
/opt/xchem-fragalysis-2/maxwin/BulkDock/SCRATCH/505734/C3246-P105

>  <fragmenstein_runtime>  (205) 
1.15008544921875

>  <fragmenstein_outcome>  (205) 
too moved

>  <fragmenstein_mode>  (205) 
expansion

>  <fragmenstein_error>  (205) 


$$$$
C3246-P194
     RDKit          3D

 21 23  0  0  0  0  0  0  0  0999 V2000
    1.1745   -5.0126   35.3992 O   0  0  0  0  0  0  0  0  0  0  0  0
    0.3874   -5.8449   34.9908 C   0  0  0  0  0  0  0  0  0  0  0  0
   -0.4743   -6.7027   35.9056 C   0  0  0  0  0  0  0  0  0  0  0  0
   -1.2290   -7.5334   34.9206 C   0  0  0  0  0  0  0  0  0  0  0  0
   -0.8558   -7.2243   33.6803 C   0  0  0  0  0  0  0  0  0  0  0  0
   -1.3123   -7.7781   32.4399 C   0  0  0  0  0  0  0  0  0  0  0  0
   -0.9188   -7.2145   31.2901 C   0  0  0  0  0  0  0  0  0  0  0  0
   -1.3973   -7.7297   30.1072 O   0  0  0  0  0  0  0  0  0  0  0  0
   -0.0623   -6.1009   31.3409 N   0  0  0  0  0  0  0  0  0  0  0  0
    0.3641   -5.2265   30.3715 C   0  0  0  0  0  0  0  0  0  0  0  0
    1.2264   -4.3603   30.9965 C   0  0  0  0  0  0  0  0  0  0  0  0
    1.3255   -4.6559   32.3261 N   0  0  0  0  0  0  0  0  0  0  0  0
    0.4866   -5.6447   32.5340 C   0  0  0  0  0  0  0  0  0  0  0  0
    0.0782   -6.2321   33.7070 N   0  0  0  0  0  0  0  0  0  0  0  0
    0.1561   -7.3200   36.5501 H   0  0  0  0  0  0  0  0  0  0  0  0
   -1.1387   -6.0636   36.4908 H   0  0  0  0  0  0  0  0  0  0  0  0
   -1.9620   -8.2719   35.1990 H   0  0  0  0  0  0  0  0  0  0  0  0
   -1.9970   -8.6159   32.4471 H   0  0  0  0  0  0  0  0  0  0  0  0
   -1.1051   -7.1563   29.3751 H   0  0  0  0  0  0  0  0  0  0  0  0
    0.0266   -5.2641   29.3509 H   0  0  0  0  0  0  0  0  0  0  0  0
    1.7727   -3.5317   30.5626 H   0  0  0  0  0  0  0  0  0  0  0  0
  1  2  2  0
  2  3  1  0
  3  4  1  0
  4  5  2  0
  5  6  1  0
  6  7  2  0
  7  8  1  0
  7  9  1  0
  9 10  1  0
 10 11  2  0
 11 12  1  0
 12 13  2  0
 13 14  1  0
 14  2  1  0
 14  5  1  0
 13  9  1  0
  3 15  1  0
  3 16  1  0
  4 17  1  0
  6 18  1  0
  8 19  1  0
 10 20  1  0
 11 21  1  0
M  END
>  <Energy>  (206) 
41.855562068843064

>  <compound_id>  (206) 
3246

>  <target_id>  (206) 
1

>  <reference_id>  (206) 
194

>  <inspiration_ids>  (206) 
[105, 194]

>  <energy_score>  (206) 
-19.88637226761263

>  <distance_score>  (206) 
2.027181051087463

>  <path>  (206) 
/opt/xchem-fragalysis-2/maxwin/BulkDock/SCRATCH/505734/C3246-P194/C3246-P194.minimised.mol

>  <scratch_subdir>  (206) 
/opt/xchem-fragalysis-2/maxwin/BulkDock/SCRATCH/505734/C3246-P194

>  <fragmenstein_runtime>  (206) 
1.2052290439605713

>  <fragmenstein_outcome>  (206) 
too moved

>  <fragmenstein_mode>  (206) 
expansion

>  <fragmenstein_error>  (206) 


$$$$
C3248-P105
     RDKit          3D

 23 24  0  0  0  0  0  0  0  0999 V2000
    0.0023   -0.9959   34.8193 N   0  0  0  0  0  0  0  0  0  0  0  0
   -0.2109   -1.6898   36.0706 C   0  0  0  0  0  0  0  0  0  0  0  0
   -0.2294   -1.2804   37.1976 O   0  0  0  0  0  0  0  0  0  0  0  0
   -0.4714   -3.1892   35.8127 C   0  0  0  0  0  0  0  0  0  0  0  0
   -0.1208   -3.5339   34.4651 O   0  0  0  0  0  0  0  0  0  0  0  0
   -0.3219   -4.8462   34.0730 C   0  0  0  0  0  0  0  0  0  0  0  0
   -0.8377   -5.8174   34.8479 C   0  0  0  0  0  0  0  0  0  0  0  0
   -0.9928   -7.1204   34.1845 C   0  0  0  0  0  0  0  0  0  0  0  0
   -1.5878   -7.9670   35.0331 O   0  0  0  0  0  0  0  0  0  0  0  0
   -0.6599   -7.4803   32.9957 N   0  0  0  0  0  0  0  0  0  0  0  0
   -0.1237   -6.4762   32.2380 C   0  0  0  0  0  0  0  0  0  0  0  0
    0.2893   -6.5139   30.9862 N   0  0  0  0  0  0  0  0  0  0  0  0
    0.6856   -5.2394   30.6756 C   0  0  0  0  0  0  0  0  0  0  0  0
    0.5428   -4.4036   31.7549 C   0  0  0  0  0  0  0  0  0  0  0  0
    0.0283   -5.1865   32.7576 N   0  0  0  0  0  0  0  0  0  0  0  0
   -0.1686   -1.6549   34.0330 H   0  0  0  0  0  0  0  0  0  0  0  0
    0.0658   -1.6942   34.0511 H   0  0  0  0  0  0  0  0  0  0  0  0
    0.1498   -3.7581   36.5135 H   0  0  0  0  0  0  0  0  0  0  0  0
   -1.5380   -3.3662   35.9886 H   0  0  0  0  0  0  0  0  0  0  0  0
   -1.1611   -5.7137   35.8725 H   0  0  0  0  0  0  0  0  0  0  0  0
   -1.5275   -8.8889   34.6956 H   0  0  0  0  0  0  0  0  0  0  0  0
    1.0537   -4.9873   29.6890 H   0  0  0  0  0  0  0  0  0  0  0  0
    0.7542   -3.3532   31.8858 H   0  0  0  0  0  0  0  0  0  0  0  0
  1  2  1  0
  2  3  2  0
  2  4  1  0
  4  5  1  0
  5  6  1  0
  6  7  2  0
  7  8  1  0
  8  9  1  0
  8 10  2  0
 10 11  1  0
 11 12  2  0
 12 13  1  0
 13 14  2  0
 14 15  1  0
 15  6  1  0
 15 11  1  0
  1 16  1  0
  1 17  1  0
  4 18  1  0
  4 19  1  0
  7 20  1  0
  9 21  1  0
 13 22  1  0
 14 23  1  0
M  END
>  <Energy>  (207) 
174.29428300684992

>  <compound_id>  (207) 
3248

>  <target_id>  (207) 
1

>  <reference_id>  (207) 
105

>  <inspiration_ids>  (207) 
[105, 196]

>  <energy_score>  (207) 
105.86868497631588

>  <distance_score>  (207) 
3.2144993037093674

>  <path>  (207) 
/opt/xchem-fragalysis-2/maxwin/BulkDock/SCRATCH/505734/C3248-P105/C3248-P105.minimised.mol

>  <scratch_subdir>  (207) 
/opt/xchem-fragalysis-2/maxwin/BulkDock/SCRATCH/505734/C3248-P105

>  <fragmenstein_runtime>  (207) 
1.9988148212432861

>  <fragmenstein_outcome>  (207) 
too moved

>  <fragmenstein_mode>  (207) 
expansion

>  <fragmenstein_error>  (207) 


$$$$
C3248-P196
     RDKit          3D

 23 24  0  0  0  0  0  0  0  0999 V2000
    1.1831   -7.7851   35.4188 N   0  0  0  0  0  0  0  0  0  0  0  0
    1.3845   -6.3658   35.2123 C   0  0  0  0  0  0  0  0  0  0  0  0
    2.3800   -5.7473   34.9610 O   0  0  0  0  0  0  0  0  0  0  0  0
    0.0412   -5.6076   35.3257 C   0  0  0  0  0  0  0  0  0  0  0  0
   -1.0152   -6.0955   34.5048 O   0  0  0  0  0  0  0  0  0  0  0  0
   -0.7049   -6.3700   33.1766 C   0  0  0  0  0  0  0  0  0  0  0  0
   -1.0947   -7.5548   32.6806 C   0  0  0  0  0  0  0  0  0  0  0  0
   -0.6339   -7.8331   31.3188 C   0  0  0  0  0  0  0  0  0  0  0  0
   -1.0095   -9.0530   30.9232 O   0  0  0  0  0  0  0  0  0  0  0  0
    0.0771   -7.1111   30.5330 N   0  0  0  0  0  0  0  0  0  0  0  0
    0.3916   -5.8814   31.0338 C   0  0  0  0  0  0  0  0  0  0  0  0
    1.0852   -4.9263   30.4538 N   0  0  0  0  0  0  0  0  0  0  0  0
    1.0408   -3.8597   31.3067 C   0  0  0  0  0  0  0  0  0  0  0  0
    0.3408   -4.1706   32.4474 C   0  0  0  0  0  0  0  0  0  0  0  0
   -0.0178   -5.4887   32.3174 N   0  0  0  0  0  0  0  0  0  0  0  0
    0.1585   -7.9758   35.5014 H   0  0  0  0  0  0  0  0  0  0  0  0
    0.2006   -7.9476   35.7354 H   0  0  0  0  0  0  0  0  0  0  0  0
    0.2002   -4.5392   35.1632 H   0  0  0  0  0  0  0  0  0  0  0  0
   -0.2913   -5.7003   36.3669 H   0  0  0  0  0  0  0  0  0  0  0  0
   -1.6459   -8.3013   33.2309 H   0  0  0  0  0  0  0  0  0  0  0  0
   -0.4257   -9.3212   30.1845 H   0  0  0  0  0  0  0  0  0  0  0  0
    1.5026   -2.9148   31.0486 H   0  0  0  0  0  0  0  0  0  0  0  0
    0.0744   -3.5665   33.2999 H   0  0  0  0  0  0  0  0  0  0  0  0
  1  2  1  0
  2  3  2  0
  2  4  1  0
  4  5  1  0
  5  6  1  0
  6  7  2  0
  7  8  1  0
  8  9  1  0
  8 10  2  0
 10 11  1  0
 11 12  2  0
 12 13  1  0
 13 14  2  0
 14 15  1  0
 15  6  1  0
 15 11  1  0
  1 16  1  0
  1 17  1  0
  4 18  1  0
  4 19  1  0
  7 20  1  0
  9 21  1  0
 13 22  1  0
 14 23  1  0
M  END
>  <Energy>  (208) 
187.68263306841229

>  <compound_id>  (208) 
3248

>  <target_id>  (208) 
1

>  <reference_id>  (208) 
196

>  <inspiration_ids>  (208) 
[105, 196]

>  <energy_score>  (208) 
119.25703503787989

>  <distance_score>  (208) 
1.5135509875930804

>  <path>  (208) 
/opt/xchem-fragalysis-2/maxwin/BulkDock/SCRATCH/505734/C3248-P196/C3248-P196.minimised.mol

>  <scratch_subdir>  (208) 
/opt/xchem-fragalysis-2/maxwin/BulkDock/SCRATCH/505734/C3248-P196

>  <fragmenstein_runtime>  (208) 
2.2422420978546143

>  <fragmenstein_outcome>  (208) 
too moved

>  <fragmenstein_mode>  (208) 
expansion

>  <fragmenstein_error>  (208) 


$$$$
C3254-P105
     RDKit          3D

 29 31  0  0  0  0  0  0  0  0999 V2000
    1.1152   -7.2863   29.5947 O   0  0  0  0  0  0  0  0  0  0  0  0
    0.4868   -6.7238   30.4941 C   0  0  0  0  0  0  0  0  0  0  0  0
   -0.7219   -7.3600   31.1545 C   0  0  0  0  0  0  0  0  0  0  0  0
   -0.9788   -8.7137   30.7960 O   0  0  0  0  0  0  0  0  0  0  0  0
   -0.6041   -7.2211   32.5919 N   0  0  0  0  0  0  0  0  0  0  0  0
   -1.3406   -7.8549   33.5383 C   0  0  0  0  0  0  0  0  0  0  0  0
   -0.8123   -7.4519   34.7385 C   0  0  0  0  0  0  0  0  0  0  0  0
    0.1675   -6.5203   34.5379 N   0  0  0  0  0  0  0  0  0  0  0  0
    0.2036   -6.3149   33.2324 C   0  0  0  0  0  0  0  0  0  0  0  0
    1.0612   -5.3039   32.5084 C   0  0  0  0  0  0  0  0  0  0  0  0
    0.8863   -3.9089   33.1249 C   0  0  0  0  0  0  0  0  0  0  0  0
    2.1861   -3.2063   32.7887 C   0  0  0  0  0  0  0  0  0  0  0  0
    3.2161   -4.3229   32.7437 C   0  0  0  0  0  0  0  0  0  0  0  0
    2.4869   -5.6028   32.8177 N   0  0  0  0  0  0  0  0  0  0  0  0
    0.8166   -5.3178   30.9646 C   0  0  0  0  0  0  0  0  0  0  0  0
   -0.2743   -4.4801   30.5642 O   0  0  0  0  0  0  0  0  0  0  0  0
   -1.6017   -6.7915   30.8641 H   0  0  0  0  0  0  0  0  0  0  0  0
   -0.1157   -9.1649   30.6878 H   0  0  0  0  0  0  0  0  0  0  0  0
   -2.1093   -8.5690   33.2859 H   0  0  0  0  0  0  0  0  0  0  0  0
   -1.0743   -7.7981   35.7302 H   0  0  0  0  0  0  0  0  0  0  0  0
    0.0140   -3.3618   32.7541 H   0  0  0  0  0  0  0  0  0  0  0  0
    0.7850   -3.9588   34.2178 H   0  0  0  0  0  0  0  0  0  0  0  0
    2.4355   -2.4389   33.5278 H   0  0  0  0  0  0  0  0  0  0  0  0
    2.1106   -2.7221   31.8081 H   0  0  0  0  0  0  0  0  0  0  0  0
    3.7994   -4.2745   31.8182 H   0  0  0  0  0  0  0  0  0  0  0  0
    3.9200   -4.2474   33.5795 H   0  0  0  0  0  0  0  0  0  0  0  0
    2.4930   -5.8851   33.8083 H   0  0  0  0  0  0  0  0  0  0  0  0
    1.7035   -4.9632   30.4262 H   0  0  0  0  0  0  0  0  0  0  0  0
   -0.1809   -4.3246   29.6026 H   0  0  0  0  0  0  0  0  0  0  0  0
  1  2  2  0
  2  3  1  0
  3  4  1  0
  3  5  1  0
  5  6  1  0
  6  7  2  0
  7  8  1  0
  8  9  2  0
  9 10  1  0
 10 11  1  0
 11 12  1  0
 12 13  1  0
 13 14  1  0
 10 15  1  0
 15 16  1  0
 15  2  1  0
  9  5  1  0
 14 10  1  0
  3 17  1  0
  4 18  1  0
  6 19  1  0
  7 20  1  0
 11 21  1  0
 11 22  1  0
 12 23  1  0
 12 24  1  0
 13 25  1  0
 13 26  1  0
 14 27  1  0
 15 28  1  0
 16 29  1  0
M  END
>  <Energy>  (209) 
88.335855138257614

>  <compound_id>  (209) 
3254

>  <target_id>  (209) 
1

>  <reference_id>  (209) 
105

>  <inspiration_ids>  (209) 
[105, 202]

>  <energy_score>  (209) 
-25.084534213564353

>  <distance_score>  (209) 
0.9975762939415517

>  <path>  (209) 
/opt/xchem-fragalysis-2/maxwin/BulkDock/SCRATCH/505734/C3254-P105/C3254-P105.minimised.mol

>  <scratch_subdir>  (209) 
/opt/xchem-fragalysis-2/maxwin/BulkDock/SCRATCH/505734/C3254-P105

>  <fragmenstein_runtime>  (209) 
2.416581869125366

>  <fragmenstein_outcome>  (209) 
acceptable

>  <fragmenstein_mode>  (209) 
expansion

>  <fragmenstein_error>  (209) 


$$$$
C3254-P202
     RDKit          3D

 29 31  0  0  0  0  0  0  0  0999 V2000
    1.5869   -6.1932   29.7794 O   0  0  0  0  0  0  0  0  0  0  0  0
    1.0010   -5.9885   30.8496 C   0  0  0  0  0  0  0  0  0  0  0  0
   -0.2849   -6.7525   31.1936 C   0  0  0  0  0  0  0  0  0  0  0  0
   -0.4661   -8.0173   30.5633 O   0  0  0  0  0  0  0  0  0  0  0  0
   -0.4505   -6.8885   32.6290 N   0  0  0  0  0  0  0  0  0  0  0  0
   -1.1582   -7.8145   33.3197 C   0  0  0  0  0  0  0  0  0  0  0  0
   -0.9544   -7.4995   34.6428 C   0  0  0  0  0  0  0  0  0  0  0  0
   -0.2334   -6.3428   34.7592 N   0  0  0  0  0  0  0  0  0  0  0  0
   -0.0351   -5.9380   33.5211 C   0  0  0  0  0  0  0  0  0  0  0  0
    0.5778   -4.6571   33.0373 C   0  0  0  0  0  0  0  0  0  0  0  0
   -0.4910   -3.6390   32.6084 C   0  0  0  0  0  0  0  0  0  0  0  0
   -0.0378   -2.3373   33.2420 C   0  0  0  0  0  0  0  0  0  0  0  0
    0.6027   -2.8039   34.5290 C   0  0  0  0  0  0  0  0  0  0  0  0
    1.3492   -4.0075   34.1387 N   0  0  0  0  0  0  0  0  0  0  0  0
    1.5523   -4.9792   31.8746 C   0  0  0  0  0  0  0  0  0  0  0  0
    2.7666   -5.5039   32.4258 O   0  0  0  0  0  0  0  0  0  0  0  0
   -1.1062   -6.1124   30.8797 H   0  0  0  0  0  0  0  0  0  0  0  0
    0.3600   -8.5224   30.6655 H   0  0  0  0  0  0  0  0  0  0  0  0
   -1.6992   -8.6147   32.8349 H   0  0  0  0  0  0  0  0  0  0  0  0
   -1.2943   -8.0431   35.5147 H   0  0  0  0  0  0  0  0  0  0  0  0
   -0.5892   -3.5336   31.5227 H   0  0  0  0  0  0  0  0  0  0  0  0
   -1.4780   -3.8993   33.0046 H   0  0  0  0  0  0  0  0  0  0  0  0
   -0.8696   -1.6478   33.4124 H   0  0  0  0  0  0  0  0  0  0  0  0
    0.6991   -1.8386   32.6008 H   0  0  0  0  0  0  0  0  0  0  0  0
   -0.1638   -3.0586   35.2709 H   0  0  0  0  0  0  0  0  0  0  0  0
    1.2660   -2.0489   34.9596 H   0  0  0  0  0  0  0  0  0  0  0  0
    1.3223   -4.6470   34.9465 H   0  0  0  0  0  0  0  0  0  0  0  0
    1.8147   -4.0625   31.3326 H   0  0  0  0  0  0  0  0  0  0  0  0
    2.9128   -4.9683   33.2380 H   0  0  0  0  0  0  0  0  0  0  0  0
  1  2  2  0
  2  3  1  0
  3  4  1  0
  3  5  1  0
  5  6  1  0
  6  7  2  0
  7  8  1  0
  8  9  2  0
  9 10  1  0
 10 11  1  0
 11 12  1  0
 12 13  1  0
 13 14  1  0
 10 15  1  0
 15 16  1  0
 15  2  1  0
  9  5  1  0
 14 10  1  0
  3 17  1  0
  4 18  1  0
  6 19  1  0
  7 20  1  0
 11 21  1  0
 11 22  1  0
 12 23  1  0
 12 24  1  0
 13 25  1  0
 13 26  1  0
 14 27  1  0
 15 28  1  0
 16 29  1  0
M  END
>  <Energy>  (210) 
87.834904212810869

>  <compound_id>  (210) 
3254

>  <target_id>  (210) 
1

>  <reference_id>  (210) 
202

>  <inspiration_ids>  (210) 
[105, 202]

>  <energy_score>  (210) 
-25.585485139010814

>  <distance_score>  (210) 
0.9542363512039211

>  <path>  (210) 
/opt/xchem-fragalysis-2/maxwin/BulkDock/SCRATCH/505734/C3254-P202/C3254-P202.minimised.mol

>  <scratch_subdir>  (210) 
/opt/xchem-fragalysis-2/maxwin/BulkDock/SCRATCH/505734/C3254-P202

>  <fragmenstein_runtime>  (210) 
2.601500988006592

>  <fragmenstein_outcome>  (210) 
acceptable

>  <fragmenstein_mode>  (210) 
expansion

>  <fragmenstein_error>  (210) 


$$$$
C3255-P106
     RDKit          3D

 30 32  0  0  0  0  0  0  0  0999 V2000
   12.5230    1.8036   13.5939 O   0  0  0  0  0  0  0  0  0  0  0  0
   13.5151    1.2135   14.0097 C   0  0  0  0  0  0  0  0  0  0  0  0
   13.8014   -0.1162   13.7391 N   0  0  0  0  0  0  0  0  0  0  0  0
   14.5827   -0.4432   12.5747 C   0  0  0  0  0  0  0  0  0  0  0  0
   15.2422   -1.6855   12.5112 C   0  0  0  0  0  0  0  0  0  0  0  0
   16.1016   -2.0018   11.4540 C   0  0  0  0  0  0  0  0  0  0  0  0
   16.3232   -1.0847   10.4359 C   0  0  0  0  0  0  0  0  0  0  0  0
   15.6621    0.1378   10.4600 C   0  0  0  0  0  0  0  0  0  0  0  0
   14.7885    0.4489   11.5061 C   0  0  0  0  0  0  0  0  0  0  0  0
   14.1425    1.6482   11.3622 O   0  0  0  0  0  0  0  0  0  0  0  0
   13.3085   -1.0737   14.6239 C   0  0  0  0  0  0  0  0  0  0  0  0
   12.3614   -1.9469   14.2345 C   0  0  0  0  0  0  0  0  0  0  0  0
   11.9205   -2.8838   15.2742 C   0  0  0  0  0  0  0  0  0  0  0  0
   10.9276   -3.6580   14.8378 O   0  0  0  0  0  0  0  0  0  0  0  0
   12.3543   -3.0249   16.4728 N   0  0  0  0  0  0  0  0  0  0  0  0
   13.3446   -2.1562   16.8204 C   0  0  0  0  0  0  0  0  0  0  0  0
   13.9834   -2.0660   17.9646 N   0  0  0  0  0  0  0  0  0  0  0  0
   14.8466   -1.0169   17.8483 C   0  0  0  0  0  0  0  0  0  0  0  0
   14.7505   -0.4426   16.6069 C   0  0  0  0  0  0  0  0  0  0  0  0
   13.7904   -1.1664   15.9388 N   0  0  0  0  0  0  0  0  0  0  0  0
   14.3145    1.7146   14.5800 H   0  0  0  0  0  0  0  0  0  0  0  0
   15.1497   -2.4210   13.3053 H   0  0  0  0  0  0  0  0  0  0  0  0
   16.6163   -2.9583   11.4433 H   0  0  0  0  0  0  0  0  0  0  0  0
   17.0087   -1.3191    9.6274 H   0  0  0  0  0  0  0  0  0  0  0  0
   15.8123    0.8530    9.6549 H   0  0  0  0  0  0  0  0  0  0  0  0
   13.2813    1.6224   11.8271 H   0  0  0  0  0  0  0  0  0  0  0  0
   11.9051   -1.9758   13.2589 H   0  0  0  0  0  0  0  0  0  0  0  0
   10.6825   -4.3155   15.5207 H   0  0  0  0  0  0  0  0  0  0  0  0
   15.5014   -0.7366   18.6640 H   0  0  0  0  0  0  0  0  0  0  0  0
   15.2946    0.3725   16.1568 H   0  0  0  0  0  0  0  0  0  0  0  0
  1  2  2  0
  2  3  1  0
  3  4  1  0
  4  5  2  0
  5  6  1  0
  6  7  2  0
  7  8  1  0
  8  9  2  0
  9 10  1  0
  3 11  1  0
 11 12  2  0
 12 13  1  0
 13 14  1  0
 13 15  2  0
 15 16  1  0
 16 17  2  0
 17 18  1  0
 18 19  2  0
 19 20  1  0
  9  4  1  0
 20 11  1  0
 20 16  1  0
  2 21  1  0
  5 22  1  0
  6 23  1  0
  7 24  1  0
  8 25  1  0
 10 26  1  0
 12 27  1  0
 14 28  1  0
 18 29  1  0
 19 30  1  0
M  END
>  <Energy>  (211) 
47.55320132195672

>  <compound_id>  (211) 
3255

>  <target_id>  (211) 
1

>  <reference_id>  (211) 
106

>  <inspiration_ids>  (211) 
[106, 4]

>  <energy_score>  (211) 
-42.917112616621466

>  <distance_score>  (211) 
0.8749212553697323

>  <path>  (211) 
/opt/xchem-fragalysis-2/maxwin/BulkDock/SCRATCH/505734/C3255-P106/C3255-P106.minimised.mol

>  <scratch_subdir>  (211) 
/opt/xchem-fragalysis-2/maxwin/BulkDock/SCRATCH/505734/C3255-P106

>  <fragmenstein_runtime>  (211) 
17.16569471359253

>  <fragmenstein_outcome>  (211) 
acceptable

>  <fragmenstein_mode>  (211) 
expansion

>  <fragmenstein_error>  (211) 


$$$$
C3255-P4
     RDKit          3D

 30 32  0  0  0  0  0  0  0  0999 V2000
   12.3189    1.2895   13.0277 O   0  0  0  0  0  0  0  0  0  0  0  0
   13.3445    0.8941   13.5758 C   0  0  0  0  0  0  0  0  0  0  0  0
   13.8547   -0.3899   13.4676 N   0  0  0  0  0  0  0  0  0  0  0  0
   14.7850   -0.6920   12.4106 C   0  0  0  0  0  0  0  0  0  0  0  0
   15.4186   -1.9467   12.3698 C   0  0  0  0  0  0  0  0  0  0  0  0
   16.3418   -2.2623   11.3673 C   0  0  0  0  0  0  0  0  0  0  0  0
   16.6599   -1.3322   10.3866 C   0  0  0  0  0  0  0  0  0  0  0  0
   16.0386   -0.0899   10.3943 C   0  0  0  0  0  0  0  0  0  0  0  0
   15.0982    0.2175   11.3799 C   0  0  0  0  0  0  0  0  0  0  0  0
   14.4936    1.4369   11.2212 O   0  0  0  0  0  0  0  0  0  0  0  0
   13.4310   -1.3283   14.4027 C   0  0  0  0  0  0  0  0  0  0  0  0
   12.3388   -2.0757   14.1795 C   0  0  0  0  0  0  0  0  0  0  0  0
   12.0205   -3.0416   15.2355 C   0  0  0  0  0  0  0  0  0  0  0  0
   10.9402   -3.7483   14.9124 O   0  0  0  0  0  0  0  0  0  0  0  0
   12.6376   -3.2698   16.3381 N   0  0  0  0  0  0  0  0  0  0  0  0
   13.7230   -2.4730   16.5503 C   0  0  0  0  0  0  0  0  0  0  0  0
   14.4759   -2.3927   17.6245 N   0  0  0  0  0  0  0  0  0  0  0  0
   15.3792   -1.3941   17.3915 C   0  0  0  0  0  0  0  0  0  0  0  0
   15.1796   -0.8303   16.1563 C   0  0  0  0  0  0  0  0  0  0  0  0
   14.1159   -1.5102   15.6118 N   0  0  0  0  0  0  0  0  0  0  0  0
   13.9722    1.5392   14.2145 H   0  0  0  0  0  0  0  0  0  0  0  0
   15.2232   -2.7141   13.1138 H   0  0  0  0  0  0  0  0  0  0  0  0
   16.8200   -3.2384   11.3580 H   0  0  0  0  0  0  0  0  0  0  0  0
   17.3880   -1.5785    9.6185 H   0  0  0  0  0  0  0  0  0  0  0  0
   16.2694    0.6383    9.6210 H   0  0  0  0  0  0  0  0  0  0  0  0
   13.5325    1.3232   11.3674 H   0  0  0  0  0  0  0  0  0  0  0  0
   11.7221   -2.0192   13.3014 H   0  0  0  0  0  0  0  0  0  0  0  0
   10.7575   -4.4389   15.5804 H   0  0  0  0  0  0  0  0  0  0  0  0
   16.1299   -1.1354   18.1281 H   0  0  0  0  0  0  0  0  0  0  0  0
   15.6917   -0.0364   15.6327 H   0  0  0  0  0  0  0  0  0  0  0  0
  1  2  2  0
  2  3  1  0
  3  4  1  0
  4  5  2  0
  5  6  1  0
  6  7  2  0
  7  8  1  0
  8  9  2  0
  9 10  1  0
  3 11  1  0
 11 12  2  0
 12 13  1  0
 13 14  1  0
 13 15  2  0
 15 16  1  0
 16 17  2  0
 17 18  1  0
 18 19  2  0
 19 20  1  0
  9  4  1  0
 20 11  1  0
 20 16  1  0
  2 21  1  0
  5 22  1  0
  6 23  1  0
  7 24  1  0
  8 25  1  0
 10 26  1  0
 12 27  1  0
 14 28  1  0
 18 29  1  0
 19 30  1  0
M  END
>  <Energy>  (212) 
49.290436456763771

>  <compound_id>  (212) 
3255

>  <target_id>  (212) 
1

>  <reference_id>  (212) 
4

>  <inspiration_ids>  (212) 
[106, 4]

>  <energy_score>  (212) 
-41.17987748181322

>  <distance_score>  (212) 
1.0055616082063523

>  <path>  (212) 
/opt/xchem-fragalysis-2/maxwin/BulkDock/SCRATCH/505734/C3255-P4/C3255-P4.minimised.mol

>  <scratch_subdir>  (212) 
/opt/xchem-fragalysis-2/maxwin/BulkDock/SCRATCH/505734/C3255-P4

>  <fragmenstein_runtime>  (212) 
18.046945333480835

>  <fragmenstein_outcome>  (212) 
too moved

>  <fragmenstein_mode>  (212) 
expansion

>  <fragmenstein_error>  (212) 


$$$$
C3256-P106
     RDKit          3D

 50 52  0  0  0  0  0  0  0  0999 V2000
   15.2793   -0.8863   22.3078 C   0  0  0  0  0  0  0  0  0  0  0  0
   15.1256   -0.9970   20.8057 C   0  0  0  0  0  0  0  0  0  0  0  0
   14.3093   -0.3273   20.2298 O   0  0  0  0  0  0  0  0  0  0  0  0
   16.0607   -1.9558   20.3062 N   0  0  0  0  0  0  0  0  0  0  0  0
   15.4374   -3.3571   20.3142 C   0  0  0  0  0  0  0  0  0  0  0  0
   14.1250   -3.6213   19.5416 C   0  0  0  0  0  0  0  0  0  0  0  0
   14.2919   -3.3818   18.0973 N   0  0  0  0  0  0  0  0  0  0  0  0
   13.2073   -3.6390   17.2702 C   0  0  0  0  0  0  0  0  0  0  0  0
   12.7103   -3.0866   16.1577 C   0  0  0  0  0  0  0  0  0  0  0  0
   13.2042   -1.9220   15.3634 C   0  0  0  0  0  0  0  0  0  0  0  0
   12.4650   -0.6995   15.7016 N   0  0  0  0  0  0  0  0  0  0  0  0
   11.1101   -0.7063   15.1343 C   0  0  0  0  0  0  0  0  0  0  0  0
   11.1223    0.3920   14.0903 C   0  0  0  0  0  0  0  0  0  0  0  0
   12.1219    1.3523   14.5774 N   0  0  0  0  0  0  0  0  0  0  0  0
   11.5806    2.2753   15.5551 C   0  0  0  0  0  0  0  0  0  0  0  0
   10.5947    3.0831   14.9259 O   0  0  0  0  0  0  0  0  0  0  0  0
   12.6801    3.1847   16.0958 C   0  0  0  0  0  0  0  0  0  0  0  0
   14.0216    2.4706   16.0584 C   0  0  0  0  0  0  0  0  0  0  0  0
   14.8483    2.9620   17.0893 O   0  0  0  0  0  0  0  0  0  0  0  0
   13.8809    1.0518   16.2399 N   0  0  0  0  0  0  0  0  0  0  0  0
   13.1361    0.4698   15.1535 C   0  0  0  0  0  0  0  0  0  0  0  0
   15.2633   -2.3174   17.8456 C   0  0  0  0  0  0  0  0  0  0  0  0
   16.4019   -2.3527   18.8924 C   0  0  0  0  0  0  0  0  0  0  0  0
   14.4330   -1.3791   22.7931 H   0  0  0  0  0  0  0  0  0  0  0  0
   15.2991    0.1711   22.5869 H   0  0  0  0  0  0  0  0  0  0  0  0
   16.2084   -1.3469   22.6562 H   0  0  0  0  0  0  0  0  0  0  0  0
   16.1790   -4.1644   20.1859 H   0  0  0  0  0  0  0  0  0  0  0  0
   15.1550   -3.4953   21.3704 H   0  0  0  0  0  0  0  0  0  0  0  0
   13.8242   -4.6625   19.7121 H   0  0  0  0  0  0  0  0  0  0  0  0
   13.3311   -2.9851   19.9393 H   0  0  0  0  0  0  0  0  0  0  0  0
   12.6256   -4.4645   17.6785 H   0  0  0  0  0  0  0  0  0  0  0  0
   11.8019   -3.5418   15.7657 H   0  0  0  0  0  0  0  0  0  0  0  0
   13.1144   -2.1536   14.2932 H   0  0  0  0  0  0  0  0  0  0  0  0
   14.2727   -1.7771   15.5305 H   0  0  0  0  0  0  0  0  0  0  0  0
   10.8014   -1.6654   14.7100 H   0  0  0  0  0  0  0  0  0  0  0  0
   10.3991   -0.4612   15.9309 H   0  0  0  0  0  0  0  0  0  0  0  0
   11.4713   -0.0031   13.1304 H   0  0  0  0  0  0  0  0  0  0  0  0
   10.1319    0.8228   13.9206 H   0  0  0  0  0  0  0  0  0  0  0  0
   11.0865    1.7680   16.3896 H   0  0  0  0  0  0  0  0  0  0  0  0
   11.0162    3.3297   14.0854 H   0  0  0  0  0  0  0  0  0  0  0  0
   12.7513    4.1168   15.5202 H   0  0  0  0  0  0  0  0  0  0  0  0
   12.4256    3.4930   17.1176 H   0  0  0  0  0  0  0  0  0  0  0  0
   14.5387    2.6826   15.1143 H   0  0  0  0  0  0  0  0  0  0  0  0
   15.3072    2.1664   17.4104 H   0  0  0  0  0  0  0  0  0  0  0  0
   13.3500    0.8561   17.0859 H   0  0  0  0  0  0  0  0  0  0  0  0
   13.8266    0.2062   14.3401 H   0  0  0  0  0  0  0  0  0  0  0  0
   15.7262   -2.4675   16.8646 H   0  0  0  0  0  0  0  0  0  0  0  0
   14.7700   -1.3402   17.8585 H   0  0  0  0  0  0  0  0  0  0  0  0
   17.0815   -3.2158   18.7961 H   0  0  0  0  0  0  0  0  0  0  0  0
   17.0553   -1.5190   18.5910 H   0  0  0  0  0  0  0  0  0  0  0  0
  1  2  1  0
  2  3  2  0
  2  4  1  0
  4  5  1  0
  5  6  1  0
  6  7  1  0
  7  8  1  0
  8  9  2  3
  9 10  1  0
 10 11  1  0
 11 12  1  0
 12 13  1  0
 13 14  1  0
 14 15  1  0
 15 16  1  0
 15 17  1  0
 17 18  1  0
 18 19  1  0
 18 20  1  0
 20 21  1  0
  7 22  1  0
 22 23  1  0
 23  4  1  0
 21 11  1  0
 21 14  1  0
  1 24  1  0
  1 25  1  0
  1 26  1  0
  5 27  1  0
  5 28  1  0
  6 29  1  0
  6 30  1  0
  8 31  1  0
  9 32  1  0
 10 33  1  0
 10 34  1  0
 12 35  1  0
 12 36  1  0
 13 37  1  0
 13 38  1  0
 15 39  1  0
 16 40  1  0
 17 41  1  0
 17 42  1  0
 18 43  1  0
 19 44  1  0
 20 45  1  0
 21 46  1  0
 22 47  1  0
 22 48  1  0
 23 49  1  0
 23 50  1  0
M  END
>  <Energy>  (213) 
-77.347238909594111

>  <compound_id>  (213) 
3256

>  <target_id>  (213) 
1

>  <reference_id>  (213) 
106

>  <inspiration_ids>  (213) 
[106, 5]

>  <energy_score>  (213) 
14.918968289218085

>  <distance_score>  (213) 
2.578993938700843

>  <path>  (213) 
/opt/xchem-fragalysis-2/maxwin/BulkDock/SCRATCH/505734/C3256-P106/C3256-P106.minimised.mol

>  <scratch_subdir>  (213) 
/opt/xchem-fragalysis-2/maxwin/BulkDock/SCRATCH/505734/C3256-P106

>  <fragmenstein_runtime>  (213) 
8.951467990875244

>  <fragmenstein_outcome>  (213) 
too moved

>  <fragmenstein_mode>  (213) 
expansion

>  <fragmenstein_error>  (213) 


$$$$
C3256-P5
     RDKit          3D

 50 52  0  0  0  0  0  0  0  0999 V2000
   20.1136   -1.9697   13.8256 C   0  0  0  0  0  0  0  0  0  0  0  0
   19.3217   -0.8341   13.2123 C   0  0  0  0  0  0  0  0  0  0  0  0
   19.8109    0.1909   12.9110 O   0  0  0  0  0  0  0  0  0  0  0  0
   17.8900   -1.3115   13.0855 N   0  0  0  0  0  0  0  0  0  0  0  0
   17.0793   -0.9710   14.3394 C   0  0  0  0  0  0  0  0  0  0  0  0
   15.8533   -1.8630   14.6622 C   0  0  0  0  0  0  0  0  0  0  0  0
   14.7941   -1.6418   13.6715 N   0  0  0  0  0  0  0  0  0  0  0  0
   13.5318   -2.2085   13.7743 C   0  0  0  0  0  0  0  0  0  0  0  0
   12.6902   -2.4904   14.7718 C   0  0  0  0  0  0  0  0  0  0  0  0
   12.7840   -2.0645   16.1946 C   0  0  0  0  0  0  0  0  0  0  0  0
   12.2194   -0.7212   16.4225 N   0  0  0  0  0  0  0  0  0  0  0  0
   10.8873   -0.6061   15.8024 C   0  0  0  0  0  0  0  0  0  0  0  0
   11.0859    0.2725   14.5906 C   0  0  0  0  0  0  0  0  0  0  0  0
   12.1303    1.2015   15.0243 N   0  0  0  0  0  0  0  0  0  0  0  0
   11.6224    2.3109   15.7962 C   0  0  0  0  0  0  0  0  0  0  0  0
   10.6911    3.0295   15.0097 O   0  0  0  0  0  0  0  0  0  0  0  0
   12.7787    3.2245   16.1826 C   0  0  0  0  0  0  0  0  0  0  0  0
   14.0415    2.3947   16.3757 C   0  0  0  0  0  0  0  0  0  0  0  0
   14.8817    3.0237   17.3162 O   0  0  0  0  0  0  0  0  0  0  0  0
   13.7360    1.0623   16.8478 N   0  0  0  0  0  0  0  0  0  0  0  0
   13.0214    0.3457   15.8110 C   0  0  0  0  0  0  0  0  0  0  0  0
   15.3993   -1.4956   12.3372 C   0  0  0  0  0  0  0  0  0  0  0  0
   16.6863   -0.6564   12.4430 C   0  0  0  0  0  0  0  0  0  0  0  0
   19.5367   -2.8979   13.8669 H   0  0  0  0  0  0  0  0  0  0  0  0
   20.4098   -1.6899   14.8399 H   0  0  0  0  0  0  0  0  0  0  0  0
   21.0047   -2.1489   13.2174 H   0  0  0  0  0  0  0  0  0  0  0  0
   17.7834   -1.2081   15.1538 H   0  0  0  0  0  0  0  0  0  0  0  0
   16.9220    0.1075   14.5214 H   0  0  0  0  0  0  0  0  0  0  0  0
   16.1497   -2.9192   14.6614 H   0  0  0  0  0  0  0  0  0  0  0  0
   15.5207   -1.6001   15.6671 H   0  0  0  0  0  0  0  0  0  0  0  0
   13.1937   -2.5024   12.7886 H   0  0  0  0  0  0  0  0  0  0  0  0
   11.7704   -3.0072   14.4970 H   0  0  0  0  0  0  0  0  0  0  0  0
   13.7983   -2.1241   16.5933 H   0  0  0  0  0  0  0  0  0  0  0  0
   12.2208   -2.7872   16.7977 H   0  0  0  0  0  0  0  0  0  0  0  0
   10.3901   -1.5526   15.5656 H   0  0  0  0  0  0  0  0  0  0  0  0
   10.2093   -0.0867   16.4856 H   0  0  0  0  0  0  0  0  0  0  0  0
   10.1561    0.7577   14.2780 H   0  0  0  0  0  0  0  0  0  0  0  0
   11.4421   -0.2926   13.7238 H   0  0  0  0  0  0  0  0  0  0  0  0
   11.0863    2.0062   16.6982 H   0  0  0  0  0  0  0  0  0  0  0  0
   11.1282    3.0808   14.1423 H   0  0  0  0  0  0  0  0  0  0  0  0
   12.9594    3.9912   15.4182 H   0  0  0  0  0  0  0  0  0  0  0  0
   12.5195    3.7759   17.0954 H   0  0  0  0  0  0  0  0  0  0  0  0
   14.6112    2.3455   15.4388 H   0  0  0  0  0  0  0  0  0  0  0  0
   15.3921    2.2884   17.6955 H   0  0  0  0  0  0  0  0  0  0  0  0
   13.1243    1.1248   17.6524 H   0  0  0  0  0  0  0  0  0  0  0  0
   13.7757   -0.0185   15.1223 H   0  0  0  0  0  0  0  0  0  0  0  0
   15.6258   -2.4833   11.9173 H   0  0  0  0  0  0  0  0  0  0  0  0
   14.6977   -0.9894   11.6631 H   0  0  0  0  0  0  0  0  0  0  0  0
   16.5306    0.4099   12.6848 H   0  0  0  0  0  0  0  0  0  0  0  0
   17.0348   -0.5682   11.4012 H   0  0  0  0  0  0  0  0  0  0  0  0
  1  2  1  0
  2  3  2  0
  2  4  1  0
  4  5  1  0
  5  6  1  0
  6  7  1  0
  7  8  1  0
  8  9  2  3
  9 10  1  0
 10 11  1  0
 11 12  1  0
 12 13  1  0
 13 14  1  0
 14 15  1  0
 15 16  1  0
 15 17  1  0
 17 18  1  0
 18 19  1  0
 18 20  1  0
 20 21  1  0
  7 22  1  0
 22 23  1  0
 23  4  1  0
 21 11  1  0
 21 14  1  0
  1 24  1  0
  1 25  1  0
  1 26  1  0
  5 27  1  0
  5 28  1  0
  6 29  1  0
  6 30  1  0
  8 31  1  0
  9 32  1  0
 10 33  1  0
 10 34  1  0
 12 35  1  0
 12 36  1  0
 13 37  1  0
 13 38  1  0
 15 39  1  0
 16 40  1  0
 17 41  1  0
 17 42  1  0
 18 43  1  0
 19 44  1  0
 20 45  1  0
 21 46  1  0
 22 47  1  0
 22 48  1  0
 23 49  1  0
 23 50  1  0
M  END
>  <Energy>  (214) 
-58.021263240557424

>  <compound_id>  (214) 
3256

>  <target_id>  (214) 
1

>  <reference_id>  (214) 
5

>  <inspiration_ids>  (214) 
[106, 5]

>  <energy_score>  (214) 
9.340690318230187

>  <distance_score>  (214) 
3.169658439101373

>  <path>  (214) 
/opt/xchem-fragalysis-2/maxwin/BulkDock/SCRATCH/505734/C3256-P5/C3256-P5.minimised.mol

>  <scratch_subdir>  (214) 
/opt/xchem-fragalysis-2/maxwin/BulkDock/SCRATCH/505734/C3256-P5

>  <fragmenstein_runtime>  (214) 
6.611826181411743

>  <fragmenstein_outcome>  (214) 
too moved

>  <fragmenstein_mode>  (214) 
expansion

>  <fragmenstein_error>  (214) 


$$$$
C3257-P106
     RDKit          3D

 33 35  0  0  0  0  0  0  0  0999 V2000
   14.9798    3.5099   12.6271 C   0  0  0  0  0  0  0  0  0  0  0  0
   14.4124    3.4090   14.0395 C   0  0  0  0  0  0  0  0  0  0  0  0
   15.4042    2.7689   14.9186 N   0  0  0  0  0  0  0  0  0  0  0  0
   13.1420    2.6334   14.0434 C   0  0  0  0  0  0  0  0  0  0  0  0
   12.9883    1.3404   13.8899 N   0  0  0  0  0  0  0  0  0  0  0  0
   11.6830    1.1648   14.2775 C   0  0  0  0  0  0  0  0  0  0  0  0
   11.0925   -0.1859   14.4169 C   0  0  0  0  0  0  0  0  0  0  0  0
   11.8219   -1.0438   15.3498 N   0  0  0  0  0  0  0  0  0  0  0  0
   11.7836   -2.4204   15.3213 C   0  0  0  0  0  0  0  0  0  0  0  0
   12.7444   -2.8857   16.1896 C   0  0  0  0  0  0  0  0  0  0  0  0
   13.3695   -1.7550   16.7771 C   0  0  0  0  0  0  0  0  0  0  0  0
   14.4229   -1.5253   17.6801 C   0  0  0  0  0  0  0  0  0  0  0  0
   15.1292   -2.5812   18.1870 O   0  0  0  0  0  0  0  0  0  0  0  0
   14.7296   -0.2167   18.0482 C   0  0  0  0  0  0  0  0  0  0  0  0
   13.9407    0.7864   17.5318 C   0  0  0  0  0  0  0  0  0  0  0  0
   14.1517    2.0823   17.8775 O   0  0  0  0  0  0  0  0  0  0  0  0
   12.9124    0.6411   16.6950 N   0  0  0  0  0  0  0  0  0  0  0  0
   12.7036   -0.6324   16.3114 C   0  0  0  0  0  0  0  0  0  0  0  0
   11.0052    2.3006   14.5126 N   0  0  0  0  0  0  0  0  0  0  0  0
   11.9928    3.2864   14.3818 O   0  0  0  0  0  0  0  0  0  0  0  0
   14.2673    4.0036   11.9563 H   0  0  0  0  0  0  0  0  0  0  0  0
   15.1986    2.5223   12.2035 H   0  0  0  0  0  0  0  0  0  0  0  0
   15.9065    4.0944   12.6173 H   0  0  0  0  0  0  0  0  0  0  0  0
   14.2282    4.4212   14.4170 H   0  0  0  0  0  0  0  0  0  0  0  0
   15.0261    2.7121   15.8668 H   0  0  0  0  0  0  0  0  0  0  0  0
   15.4873    1.7893   14.6303 H   0  0  0  0  0  0  0  0  0  0  0  0
   11.1827   -0.6668   13.4435 H   0  0  0  0  0  0  0  0  0  0  0  0
   10.0500   -0.1612   14.7472 H   0  0  0  0  0  0  0  0  0  0  0  0
   11.1161   -2.9484   14.6509 H   0  0  0  0  0  0  0  0  0  0  0  0
   12.9974   -3.9241   16.3695 H   0  0  0  0  0  0  0  0  0  0  0  0
   15.7653   -2.2529   18.8427 H   0  0  0  0  0  0  0  0  0  0  0  0
   15.5345    0.0206   18.7308 H   0  0  0  0  0  0  0  0  0  0  0  0
   13.3197    2.4826   17.5589 H   0  0  0  0  0  0  0  0  0  0  0  0
  1  2  1  0
  2  3  1  0
  2  4  1  0
  4  5  2  0
  5  6  1  0
  6  7  1  0
  7  8  1  0
  8  9  1  0
  9 10  2  0
 10 11  1  0
 11 12  2  0
 12 13  1  0
 12 14  1  0
 14 15  2  0
 15 16  1  0
 15 17  1  0
 17 18  2  0
  6 19  2  0
 19 20  1  0
 20  4  1  0
 18  8  1  0
 18 11  1  0
  1 21  1  0
  1 22  1  0
  1 23  1  0
  2 24  1  0
  3 25  1  0
  3 26  1  0
  7 27  1  0
  7 28  1  0
  9 29  1  0
 10 30  1  0
 13 31  1  0
 14 32  1  0
 16 33  1  0
M  END
>  <Energy>  (215) 
27.70763636494469

>  <compound_id>  (215) 
3257

>  <target_id>  (215) 
1

>  <reference_id>  (215) 
106

>  <inspiration_ids>  (215) 
[106, 6]

>  <energy_score>  (215) 
-49.037830837874054

>  <distance_score>  (215) 
1.729038468597743

>  <path>  (215) 
/opt/xchem-fragalysis-2/maxwin/BulkDock/SCRATCH/505734/C3257-P106/C3257-P106.minimised.mol

>  <scratch_subdir>  (215) 
/opt/xchem-fragalysis-2/maxwin/BulkDock/SCRATCH/505734/C3257-P106

>  <fragmenstein_runtime>  (215) 
1.4587516784667969

>  <fragmenstein_outcome>  (215) 
too moved

>  <fragmenstein_mode>  (215) 
expansion

>  <fragmenstein_error>  (215) 


$$$$
C3257-P6
     RDKit          3D

 33 35  0  0  0  0  0  0  0  0999 V2000
   14.9001    3.5211   12.6187 C   0  0  0  0  0  0  0  0  0  0  0  0
   14.3845    3.3924   14.0485 C   0  0  0  0  0  0  0  0  0  0  0  0
   15.4013    2.7231   14.8751 N   0  0  0  0  0  0  0  0  0  0  0  0
   13.1065    2.6291   14.0815 C   0  0  0  0  0  0  0  0  0  0  0  0
   12.9323    1.3414   13.9063 N   0  0  0  0  0  0  0  0  0  0  0  0
   11.6361    1.1722   14.3265 C   0  0  0  0  0  0  0  0  0  0  0  0
   11.0333   -0.1749   14.4527 C   0  0  0  0  0  0  0  0  0  0  0  0
   11.7670   -1.0521   15.3654 N   0  0  0  0  0  0  0  0  0  0  0  0
   11.7043   -2.4279   15.3265 C   0  0  0  0  0  0  0  0  0  0  0  0
   12.6682   -2.9179   16.1776 C   0  0  0  0  0  0  0  0  0  0  0  0
   13.3249   -1.8041   16.7624 C   0  0  0  0  0  0  0  0  0  0  0  0
   14.3979   -1.6020   17.6493 C   0  0  0  0  0  0  0  0  0  0  0  0
   15.0914   -2.6756   18.1395 O   0  0  0  0  0  0  0  0  0  0  0  0
   14.7393   -0.3015   18.0169 C   0  0  0  0  0  0  0  0  0  0  0  0
   13.9633    0.7209   17.5193 C   0  0  0  0  0  0  0  0  0  0  0  0
   14.2188    2.0114   17.8544 O   0  0  0  0  0  0  0  0  0  0  0  0
   12.9137    0.6015   16.7048 N   0  0  0  0  0  0  0  0  0  0  0  0
   12.6730   -0.6649   16.3153 C   0  0  0  0  0  0  0  0  0  0  0  0
   10.9824    2.3094   14.6162 N   0  0  0  0  0  0  0  0  0  0  0  0
   11.9772    3.2867   14.4745 O   0  0  0  0  0  0  0  0  0  0  0  0
   14.1684    4.0373   11.9865 H   0  0  0  0  0  0  0  0  0  0  0  0
   15.0927    2.5417   12.1644 H   0  0  0  0  0  0  0  0  0  0  0  0
   15.8319    4.0967   12.5877 H   0  0  0  0  0  0  0  0  0  0  0  0
   14.2246    4.3972   14.4558 H   0  0  0  0  0  0  0  0  0  0  0  0
   15.0607    2.6450   15.8354 H   0  0  0  0  0  0  0  0  0  0  0  0
   15.4700    1.7516   14.5577 H   0  0  0  0  0  0  0  0  0  0  0  0
   11.1014   -0.6442   13.4716 H   0  0  0  0  0  0  0  0  0  0  0  0
    9.9956   -0.1449   14.7976 H   0  0  0  0  0  0  0  0  0  0  0  0
   11.0177   -2.9373   14.6604 H   0  0  0  0  0  0  0  0  0  0  0  0
   12.9030   -3.9622   16.3439 H   0  0  0  0  0  0  0  0  0  0  0  0
   15.7566   -2.3562   18.7719 H   0  0  0  0  0  0  0  0  0  0  0  0
   15.5631   -0.0836   18.6837 H   0  0  0  0  0  0  0  0  0  0  0  0
   13.4043    2.4388   17.5293 H   0  0  0  0  0  0  0  0  0  0  0  0
  1  2  1  0
  2  3  1  0
  2  4  1  0
  4  5  2  0
  5  6  1  0
  6  7  1  0
  7  8  1  0
  8  9  1  0
  9 10  2  0
 10 11  1  0
 11 12  2  0
 12 13  1  0
 12 14  1  0
 14 15  2  0
 15 16  1  0
 15 17  1  0
 17 18  2  0
  6 19  2  0
 19 20  1  0
 20  4  1  0
 18  8  1  0
 18 11  1  0
  1 21  1  0
  1 22  1  0
  1 23  1  0
  2 24  1  0
  3 25  1  0
  3 26  1  0
  7 27  1  0
  7 28  1  0
  9 29  1  0
 10 30  1  0
 13 31  1  0
 14 32  1  0
 16 33  1  0
M  END
>  <Energy>  (216) 
27.562925737144663

>  <compound_id>  (216) 
3257

>  <target_id>  (216) 
1

>  <reference_id>  (216) 
6

>  <inspiration_ids>  (216) 
[106, 6]

>  <energy_score>  (216) 
-49.18254146567483

>  <distance_score>  (216) 
1.7291568097020262

>  <path>  (216) 
/opt/xchem-fragalysis-2/maxwin/BulkDock/SCRATCH/505734/C3257-P6/C3257-P6.minimised.mol

>  <scratch_subdir>  (216) 
/opt/xchem-fragalysis-2/maxwin/BulkDock/SCRATCH/505734/C3257-P6

>  <fragmenstein_runtime>  (216) 
1.353363275527954

>  <fragmenstein_outcome>  (216) 
too moved

>  <fragmenstein_mode>  (216) 
expansion

>  <fragmenstein_error>  (216) 


$$$$
C3260-P106
     RDKit          3D

 47 49  0  0  0  0  0  0  0  0999 V2000
   15.4901   -5.8357   19.5683 N   0  0  0  0  0  0  0  0  0  0  0  0
   14.5352   -4.7599   19.4841 C   0  0  0  0  0  0  0  0  0  0  0  0
   13.4366   -5.1310   20.3665 N   0  0  0  0  0  0  0  0  0  0  0  0
   13.9575   -5.0919   21.7314 O   0  0  0  0  0  0  0  0  0  0  0  0
   14.1302   -4.6057   18.1068 O   0  0  0  0  0  0  0  0  0  0  0  0
   13.2278   -3.5289   18.0358 N   0  0  0  0  0  0  0  0  0  0  0  0
   13.0300   -2.9248   16.8292 C   0  0  0  0  0  0  0  0  0  0  0  0
   11.9705   -3.0779   15.9528 C   0  0  0  0  0  0  0  0  0  0  0  0
   11.7674   -1.9419   15.2232 N   0  0  0  0  0  0  0  0  0  0  0  0
   12.7236   -1.1377   15.5964 C   0  0  0  0  0  0  0  0  0  0  0  0
   13.6726   -1.7987   16.3642 N   0  0  0  0  0  0  0  0  0  0  0  0
   14.9324   -1.1087   16.6763 C   0  0  0  0  0  0  0  0  0  0  0  0
   15.7233   -1.6777   17.8970 C   0  0  0  0  0  0  0  0  0  0  0  0
   16.6422   -2.8601   17.6134 C   0  0  0  0  0  0  0  0  0  0  0  0
   17.6171   -2.5451   16.5057 C   0  0  0  0  0  0  0  0  0  0  0  0
   16.8454   -2.2342   15.2439 C   0  0  0  0  0  0  0  0  0  0  0  0
   15.9242   -1.0236   15.4064 C   0  0  0  0  0  0  0  0  0  0  0  0
   15.3944   -0.5899   14.1447 O   0  0  0  0  0  0  0  0  0  0  0  0
   15.0752   -1.5825   13.1690 C   0  0  0  0  0  0  0  0  0  0  0  0
   16.2198   -2.0646   12.6215 F   0  0  0  0  0  0  0  0  0  0  0  0
   14.4182   -0.9581   12.1601 F   0  0  0  0  0  0  0  0  0  0  0  0
   14.4919    0.3124   17.1594 C   0  0  0  0  0  0  0  0  0  0  0  0
   13.5375    1.0383   16.2218 C   0  0  0  0  0  0  0  0  0  0  0  0
   14.2703    1.9562   15.4548 O   0  0  0  0  0  0  0  0  0  0  0  0
   12.8586    0.1670   15.3086 N   0  0  0  0  0  0  0  0  0  0  0  0
   15.7781   -5.8822   20.5403 H   0  0  0  0  0  0  0  0  0  0  0  0
   16.3062   -5.5703   19.0274 H   0  0  0  0  0  0  0  0  0  0  0  0
   15.0004   -3.8294   19.8268 H   0  0  0  0  0  0  0  0  0  0  0  0
   12.7775   -4.3490   20.3777 H   0  0  0  0  0  0  0  0  0  0  0  0
   13.7292   -5.9862   22.0519 H   0  0  0  0  0  0  0  0  0  0  0  0
   12.3441   -3.8977   18.4256 H   0  0  0  0  0  0  0  0  0  0  0  0
   11.2641   -3.8946   15.9137 H   0  0  0  0  0  0  0  0  0  0  0  0
   15.0496   -1.9028   18.7283 H   0  0  0  0  0  0  0  0  0  0  0  0
   16.3780   -0.8824   18.2843 H   0  0  0  0  0  0  0  0  0  0  0  0
   17.1919   -3.1222   18.5244 H   0  0  0  0  0  0  0  0  0  0  0  0
   16.0781   -3.7404   17.3098 H   0  0  0  0  0  0  0  0  0  0  0  0
   18.2595   -1.7013   16.7837 H   0  0  0  0  0  0  0  0  0  0  0  0
   18.2736   -3.4059   16.3346 H   0  0  0  0  0  0  0  0  0  0  0  0
   17.5704   -2.0438   14.4437 H   0  0  0  0  0  0  0  0  0  0  0  0
   16.2705   -3.1178   14.9409 H   0  0  0  0  0  0  0  0  0  0  0  0
   16.6015   -0.1976   15.6688 H   0  0  0  0  0  0  0  0  0  0  0  0
   14.4537   -2.3829   13.5650 H   0  0  0  0  0  0  0  0  0  0  0  0
   13.9680    0.1947   18.1203 H   0  0  0  0  0  0  0  0  0  0  0  0
   15.3698    0.9387   17.3661 H   0  0  0  0  0  0  0  0  0  0  0  0
   12.8125    1.6126   16.8085 H   0  0  0  0  0  0  0  0  0  0  0  0
   14.5000    1.4433   14.6549 H   0  0  0  0  0  0  0  0  0  0  0  0
   12.0772    0.5947   14.8180 H   0  0  0  0  0  0  0  0  0  0  0  0
  1  2  1  0
  2  3  1  0
  3  4  1  0
  2  5  1  0
  5  6  1  0
  6  7  1  0
  7  8  2  0
  8  9  1  0
  9 10  2  0
 10 11  1  0
 11 12  1  0
 12 13  1  0
 13 14  1  0
 14 15  1  0
 15 16  1  0
 16 17  1  0
 17 18  1  0
 18 19  1  0
 19 20  1  0
 19 21  1  0
 12 22  1  0
 22 23  1  0
 23 24  1  0
 23 25  1  0
 11  7  1  0
 17 12  1  0
 25 10  1  0
  1 26  1  0
  1 27  1  0
  2 28  1  0
  3 29  1  0
  4 30  1  0
  6 31  1  0
  8 32  1  0
 13 33  1  0
 13 34  1  0
 14 35  1  0
 14 36  1  0
 15 37  1  0
 15 38  1  0
 16 39  1  0
 16 40  1  0
 17 41  1  0
 19 42  1  0
 22 43  1  0
 22 44  1  0
 23 45  1  0
 24 46  1  0
 25 47  1  0
M  END
>  <Energy>  (217) 
-59.945620472747962

>  <compound_id>  (217) 
3260

>  <target_id>  (217) 
1

>  <reference_id>  (217) 
106

>  <inspiration_ids>  (217) 
[106, 12]

>  <energy_score>  (217) 
-76.34678280153493

>  <distance_score>  (217) 
1.2839464307068946

>  <path>  (217) 
/opt/xchem-fragalysis-2/maxwin/BulkDock/SCRATCH/505734/C3260-P106/C3260-P106.minimised.mol

>  <scratch_subdir>  (217) 
/opt/xchem-fragalysis-2/maxwin/BulkDock/SCRATCH/505734/C3260-P106

>  <fragmenstein_runtime>  (217) 
3.5443074703216553

>  <fragmenstein_outcome>  (217) 
too moved

>  <fragmenstein_mode>  (217) 
expansion

>  <fragmenstein_error>  (217) 


$$$$
C3260-P12
     RDKit          3D

 47 49  0  0  0  0  0  0  0  0999 V2000
   15.3977   -4.5392   19.9878 N   0  0  0  0  0  0  0  0  0  0  0  0
   14.1341   -3.8575   19.9302 C   0  0  0  0  0  0  0  0  0  0  0  0
   13.1597   -4.9284   19.8181 N   0  0  0  0  0  0  0  0  0  0  0  0
   13.1115   -5.6629   21.0839 O   0  0  0  0  0  0  0  0  0  0  0  0
   14.0748   -2.9158   18.8518 O   0  0  0  0  0  0  0  0  0  0  0  0
   13.8550   -3.5456   17.5907 N   0  0  0  0  0  0  0  0  0  0  0  0
   13.2667   -2.7138   16.6906 C   0  0  0  0  0  0  0  0  0  0  0  0
   12.0382   -2.8021   16.0660 C   0  0  0  0  0  0  0  0  0  0  0  0
   11.5954   -1.5554   15.7070 N   0  0  0  0  0  0  0  0  0  0  0  0
   12.6111   -0.7645   15.9426 C   0  0  0  0  0  0  0  0  0  0  0  0
   13.7422   -1.4777   16.3176 N   0  0  0  0  0  0  0  0  0  0  0  0
   15.1125   -0.9118   16.2075 C   0  0  0  0  0  0  0  0  0  0  0  0
   16.0127   -1.1163   17.4674 C   0  0  0  0  0  0  0  0  0  0  0  0
   16.8562   -2.3906   17.5362 C   0  0  0  0  0  0  0  0  0  0  0  0
   17.4962   -2.7638   16.2184 C   0  0  0  0  0  0  0  0  0  0  0  0
   16.4483   -2.8336   15.1255 C   0  0  0  0  0  0  0  0  0  0  0  0
   15.8367   -1.4555   14.9022 C   0  0  0  0  0  0  0  0  0  0  0  0
   14.9389   -1.4225   13.7957 O   0  0  0  0  0  0  0  0  0  0  0  0
   15.3977   -1.9151   12.5499 C   0  0  0  0  0  0  0  0  0  0  0  0
   16.7400   -1.7905   12.4405 F   0  0  0  0  0  0  0  0  0  0  0  0
   14.8514   -1.1324   11.5882 F   0  0  0  0  0  0  0  0  0  0  0  0
   14.9937    0.6469   16.0209 C   0  0  0  0  0  0  0  0  0  0  0  0
   13.7149    1.1973   16.6242 C   0  0  0  0  0  0  0  0  0  0  0  0
   13.6378    2.5796   16.3928 O   0  0  0  0  0  0  0  0  0  0  0  0
   12.6323    0.5819   15.9199 N   0  0  0  0  0  0  0  0  0  0  0  0
   15.6045   -4.8044   19.0292 H   0  0  0  0  0  0  0  0  0  0  0  0
   15.2126   -5.4248   20.4536 H   0  0  0  0  0  0  0  0  0  0  0  0
   13.9778   -3.2791   20.8463 H   0  0  0  0  0  0  0  0  0  0  0  0
   12.2213   -4.4958   19.7722 H   0  0  0  0  0  0  0  0  0  0  0  0
   13.3880   -5.0357   21.7852 H   0  0  0  0  0  0  0  0  0  0  0  0
   13.3400   -4.4223   17.7448 H   0  0  0  0  0  0  0  0  0  0  0  0
   11.3856   -3.6622   16.0094 H   0  0  0  0  0  0  0  0  0  0  0  0
   15.4341   -0.9827   18.3876 H   0  0  0  0  0  0  0  0  0  0  0  0
   16.7576   -0.3086   17.4950 H   0  0  0  0  0  0  0  0  0  0  0  0
   17.6326   -2.2687   18.3011 H   0  0  0  0  0  0  0  0  0  0  0  0
   16.2627   -3.2391   17.8521 H   0  0  0  0  0  0  0  0  0  0  0  0
   18.2734   -2.0359   15.9560 H   0  0  0  0  0  0  0  0  0  0  0  0
   17.9930   -3.7361   16.3159 H   0  0  0  0  0  0  0  0  0  0  0  0
   16.9320   -3.2054   14.2173 H   0  0  0  0  0  0  0  0  0  0  0  0
   15.6792   -3.5739   15.3654 H   0  0  0  0  0  0  0  0  0  0  0  0
   16.6583   -0.7642   14.6647 H   0  0  0  0  0  0  0  0  0  0  0  0
   15.0885   -2.9425   12.3826 H   0  0  0  0  0  0  0  0  0  0  0  0
   15.8616    1.1891   16.4160 H   0  0  0  0  0  0  0  0  0  0  0  0
   14.9990    0.9005   14.9496 H   0  0  0  0  0  0  0  0  0  0  0  0
   13.6636    1.0240   17.7051 H   0  0  0  0  0  0  0  0  0  0  0  0
   13.4015    2.6491   15.4521 H   0  0  0  0  0  0  0  0  0  0  0  0
   11.7347    1.0452   15.9967 H   0  0  0  0  0  0  0  0  0  0  0  0
  1  2  1  0
  2  3  1  0
  3  4  1  0
  2  5  1  0
  5  6  1  0
  6  7  1  0
  7  8  2  0
  8  9  1  0
  9 10  2  0
 10 11  1  0
 11 12  1  0
 12 13  1  0
 13 14  1  0
 14 15  1  0
 15 16  1  0
 16 17  1  0
 17 18  1  0
 18 19  1  0
 19 20  1  0
 19 21  1  0
 12 22  1  0
 22 23  1  0
 23 24  1  0
 23 25  1  0
 11  7  1  0
 17 12  1  0
 25 10  1  0
  1 26  1  0
  1 27  1  0
  2 28  1  0
  3 29  1  0
  4 30  1  0
  6 31  1  0
  8 32  1  0
 13 33  1  0
 13 34  1  0
 14 35  1  0
 14 36  1  0
 15 37  1  0
 15 38  1  0
 16 39  1  0
 16 40  1  0
 17 41  1  0
 19 42  1  0
 22 43  1  0
 22 44  1  0
 23 45  1  0
 24 46  1  0
 25 47  1  0
M  END
>  <Energy>  (218) 
-64.397067957521699

>  <compound_id>  (218) 
3260

>  <target_id>  (218) 
1

>  <reference_id>  (218) 
12

>  <inspiration_ids>  (218) 
[106, 12]

>  <energy_score>  (218) 
-80.79823028631102

>  <distance_score>  (218) 
1.2890944880242532

>  <path>  (218) 
/opt/xchem-fragalysis-2/maxwin/BulkDock/SCRATCH/505734/C3260-P12/C3260-P12.minimised.mol

>  <scratch_subdir>  (218) 
/opt/xchem-fragalysis-2/maxwin/BulkDock/SCRATCH/505734/C3260-P12

>  <fragmenstein_runtime>  (218) 
4.021808385848999

>  <fragmenstein_outcome>  (218) 
too moved

>  <fragmenstein_mode>  (218) 
expansion

>  <fragmenstein_error>  (218) 


$$$$
C714-P106
     RDKit          3D

 17 18  0  0  0  0  0  0  0  0999 V2000
   13.9164   -4.7412   17.5067 N   0  0  0  0  0  0  0  0  0  0  0  0
   13.3400   -3.9115   16.9386 C   0  0  0  0  0  0  0  0  0  0  0  0
   12.8007   -2.7311   16.3967 C   0  0  0  0  0  0  0  0  0  0  0  0
   11.7172   -2.5715   15.5711 C   0  0  0  0  0  0  0  0  0  0  0  0
   11.4628   -1.2435   15.3712 N   0  0  0  0  0  0  0  0  0  0  0  0
   12.4278   -0.5834   15.9772 C   0  0  0  0  0  0  0  0  0  0  0  0
   12.6207    0.7632   16.0372 N   0  0  0  0  0  0  0  0  0  0  0  0
   13.6215    1.1567   16.7485 C   0  0  0  0  0  0  0  0  0  0  0  0
   13.8724    2.4707   16.8620 O   0  0  0  0  0  0  0  0  0  0  0  0
   14.5730    0.3206   17.5018 C   0  0  0  0  0  0  0  0  0  0  0  0
   14.3592   -1.0012   17.4236 C   0  0  0  0  0  0  0  0  0  0  0  0
   15.2150   -1.8344   18.1301 O   0  0  0  0  0  0  0  0  0  0  0  0
   13.2793   -1.4664   16.6490 N   0  0  0  0  0  0  0  0  0  0  0  0
   11.0806   -3.3326   15.1341 H   0  0  0  0  0  0  0  0  0  0  0  0
   14.6070    2.6974   17.4501 H   0  0  0  0  0  0  0  0  0  0  0  0
   15.3788    0.7493   18.0784 H   0  0  0  0  0  0  0  0  0  0  0  0
   14.9231   -2.7628   18.1525 H   0  0  0  0  0  0  0  0  0  0  0  0
  1  2  3  0
  2  3  1  0
  3  4  2  0
  4  5  1  0
  5  6  2  0
  6  7  1  0
  7  8  2  0
  8  9  1  0
  8 10  1  0
 10 11  2  0
 11 12  1  0
 11 13  1  0
 13  3  1  0
 13  6  1  0
  4 14  1  0
  9 15  1  0
 10 16  1  0
 12 17  1  0
M  END
>  <Energy>  (219) 
-5.8355636382143619

>  <compound_id>  (219) 
714

>  <target_id>  (219) 
1

>  <reference_id>  (219) 
106

>  <inspiration_ids>  (219) 
[106, 15]

>  <energy_score>  (219) 
-31.872394951689067

>  <distance_score>  (219) 
0.43419491255265286

>  <path>  (219) 
/opt/xchem-fragalysis-2/maxwin/BulkDock/SCRATCH/505734/C714-P106/C714-P106.minimised.mol

>  <scratch_subdir>  (219) 
/opt/xchem-fragalysis-2/maxwin/BulkDock/SCRATCH/505734/C714-P106

>  <fragmenstein_runtime>  (219) 
0.4428396224975586

>  <fragmenstein_outcome>  (219) 
acceptable

>  <fragmenstein_mode>  (219) 
expansion

>  <fragmenstein_error>  (219) 


$$$$
C714-P15
     RDKit          3D

 17 18  0  0  0  0  0  0  0  0999 V2000
   14.0062   -4.6627   17.6621 N   0  0  0  0  0  0  0  0  0  0  0  0
   13.3916   -3.9167   17.0234 C   0  0  0  0  0  0  0  0  0  0  0  0
   12.8291   -2.7668   16.4414 C   0  0  0  0  0  0  0  0  0  0  0  0
   11.7476   -2.6432   15.6084 C   0  0  0  0  0  0  0  0  0  0  0  0
   11.4651   -1.3230   15.3877 N   0  0  0  0  0  0  0  0  0  0  0  0
   12.4116   -0.6333   15.9911 C   0  0  0  0  0  0  0  0  0  0  0  0
   12.5711    0.7189   16.0413 N   0  0  0  0  0  0  0  0  0  0  0  0
   13.5619    1.1416   16.7502 C   0  0  0  0  0  0  0  0  0  0  0  0
   13.7781    2.4625   16.8580 O   0  0  0  0  0  0  0  0  0  0  0  0
   14.5342    0.3356   17.5092 C   0  0  0  0  0  0  0  0  0  0  0  0
   14.3514   -0.9914   17.4433 C   0  0  0  0  0  0  0  0  0  0  0  0
   15.2286   -1.7972   18.1561 O   0  0  0  0  0  0  0  0  0  0  0  0
   13.2818   -1.4888   16.6739 N   0  0  0  0  0  0  0  0  0  0  0  0
   11.1285   -3.4250   15.1837 H   0  0  0  0  0  0  0  0  0  0  0  0
   14.5023    2.7103   17.4508 H   0  0  0  0  0  0  0  0  0  0  0  0
   15.3303    0.7877   18.0813 H   0  0  0  0  0  0  0  0  0  0  0  0
   14.9754   -2.7385   18.1626 H   0  0  0  0  0  0  0  0  0  0  0  0
  1  2  3  0
  2  3  1  0
  3  4  2  0
  4  5  1  0
  5  6  2  0
  6  7  1  0
  7  8  2  0
  8  9  1  0
  8 10  1  0
 10 11  2  0
 11 12  1  0
 11 13  1  0
 13  3  1  0
 13  6  1  0
  4 14  1  0
  9 15  1  0
 10 16  1  0
 12 17  1  0
M  END
>  <Energy>  (220) 
-5.2113397437724833

>  <compound_id>  (220) 
714

>  <target_id>  (220) 
1

>  <reference_id>  (220) 
15

>  <inspiration_ids>  (220) 
[106, 15]

>  <energy_score>  (220) 
-31.24817105724742

>  <distance_score>  (220) 
0.4499137191670338

>  <path>  (220) 
/opt/xchem-fragalysis-2/maxwin/BulkDock/SCRATCH/505734/C714-P15/C714-P15.minimised.mol

>  <scratch_subdir>  (220) 
/opt/xchem-fragalysis-2/maxwin/BulkDock/SCRATCH/505734/C714-P15

>  <fragmenstein_runtime>  (220) 
0.40294933319091797

>  <fragmenstein_outcome>  (220) 
acceptable

>  <fragmenstein_mode>  (220) 
expansion

>  <fragmenstein_error>  (220) 


$$$$
C1057-P106
     RDKit          3D

 16 17  0  0  0  0  0  0  0  0999 V2000
   14.0226    2.4350   17.1847 O   0  0  0  0  0  0  0  0  0  0  0  0
   13.7080    1.1626   16.9218 C   0  0  0  0  0  0  0  0  0  0  0  0
   14.6452    0.2346   17.5651 C   0  0  0  0  0  0  0  0  0  0  0  0
   14.3656   -1.0617   17.3682 C   0  0  0  0  0  0  0  0  0  0  0  0
   15.1733   -2.0175   17.9624 O   0  0  0  0  0  0  0  0  0  0  0  0
   13.2514   -1.4038   16.5821 N   0  0  0  0  0  0  0  0  0  0  0  0
   12.7008   -2.6056   16.2193 C   0  0  0  0  0  0  0  0  0  0  0  0
   13.3436   -4.0828   16.7467 Cl  0  0  0  0  0  0  0  0  0  0  0  0
   11.6130   -2.3304   15.4384 C   0  0  0  0  0  0  0  0  0  0  0  0
   11.4192   -0.9764   15.3655 N   0  0  0  0  0  0  0  0  0  0  0  0
   12.4257   -0.4235   16.0124 C   0  0  0  0  0  0  0  0  0  0  0  0
   12.6752    0.9054   16.1998 N   0  0  0  0  0  0  0  0  0  0  0  0
   13.3385    3.0000   16.7841 H   0  0  0  0  0  0  0  0  0  0  0  0
   15.4712    0.6002   18.1565 H   0  0  0  0  0  0  0  0  0  0  0  0
   14.8271   -2.9063   17.7579 H   0  0  0  0  0  0  0  0  0  0  0  0
   10.9397   -3.0224   14.9478 H   0  0  0  0  0  0  0  0  0  0  0  0
  1  2  1  0
  2  3  1  0
  3  4  2  0
  4  5  1  0
  4  6  1  0
  6  7  1  0
  7  8  1  0
  7  9  2  0
  9 10  1  0
 10 11  2  0
 11 12  1  0
 12  2  2  0
 11  6  1  0
  1 13  1  0
  3 14  1  0
  5 15  1  0
  9 16  1  0
M  END
>  <Energy>  (221) 
3.1152022339334984

>  <compound_id>  (221) 
1057

>  <target_id>  (221) 
1

>  <reference_id>  (221) 
106

>  <inspiration_ids>  (221) 
[106, 27]

>  <energy_score>  (221) 
-46.591566638933905

>  <distance_score>  (221) 
0.5485775692193675

>  <path>  (221) 
/opt/xchem-fragalysis-2/maxwin/BulkDock/SCRATCH/505734/C1057-P106/C1057-P106.minimised.mol

>  <scratch_subdir>  (221) 
/opt/xchem-fragalysis-2/maxwin/BulkDock/SCRATCH/505734/C1057-P106

>  <fragmenstein_runtime>  (221) 
0.7648465633392334

>  <fragmenstein_outcome>  (221) 
acceptable

>  <fragmenstein_mode>  (221) 
expansion

>  <fragmenstein_error>  (221) 


$$$$
C1057-P27
     RDKit          3D

 16 17  0  0  0  0  0  0  0  0999 V2000
   14.0045    2.4615   17.1893 O   0  0  0  0  0  0  0  0  0  0  0  0
   13.6868    1.1878   16.9368 C   0  0  0  0  0  0  0  0  0  0  0  0
   14.6221    0.2636   17.5881 C   0  0  0  0  0  0  0  0  0  0  0  0
   14.3423   -1.0336   17.3986 C   0  0  0  0  0  0  0  0  0  0  0  0
   15.1505   -1.9864   17.9972 O   0  0  0  0  0  0  0  0  0  0  0  0
   13.2297   -1.3795   16.6121 N   0  0  0  0  0  0  0  0  0  0  0  0
   12.6792   -2.5831   16.2565 C   0  0  0  0  0  0  0  0  0  0  0  0
   13.3119   -4.0545   16.8101 Cl  0  0  0  0  0  0  0  0  0  0  0  0
   11.6019   -2.3137   15.4594 C   0  0  0  0  0  0  0  0  0  0  0  0
   11.4086   -0.9602   15.3760 N   0  0  0  0  0  0  0  0  0  0  0  0
   12.4074   -0.4029   16.0315 C   0  0  0  0  0  0  0  0  0  0  0  0
   12.6552    0.9271   16.2141 N   0  0  0  0  0  0  0  0  0  0  0  0
   13.3256    3.0255   16.7792 H   0  0  0  0  0  0  0  0  0  0  0  0
   15.4475    0.6326   18.1783 H   0  0  0  0  0  0  0  0  0  0  0  0
   14.8049   -2.8760   17.7959 H   0  0  0  0  0  0  0  0  0  0  0  0
   10.9349   -3.0095   14.9653 H   0  0  0  0  0  0  0  0  0  0  0  0
  1  2  1  0
  2  3  1  0
  3  4  2  0
  4  5  1  0
  4  6  1  0
  6  7  1  0
  7  8  1  0
  7  9  2  0
  9 10  1  0
 10 11  2  0
 11 12  1  0
 12  2  2  0
 11  6  1  0
  1 13  1  0
  3 14  1  0
  5 15  1  0
  9 16  1  0
M  END
>  <Energy>  (222) 
3.1319147570592745

>  <compound_id>  (222) 
1057

>  <target_id>  (222) 
1

>  <reference_id>  (222) 
27

>  <inspiration_ids>  (222) 
[106, 27]

>  <energy_score>  (222) 
-46.57485411580897

>  <distance_score>  (222) 
0.5540786501180175

>  <path>  (222) 
/opt/xchem-fragalysis-2/maxwin/BulkDock/SCRATCH/505734/C1057-P27/C1057-P27.minimised.mol

>  <scratch_subdir>  (222) 
/opt/xchem-fragalysis-2/maxwin/BulkDock/SCRATCH/505734/C1057-P27

>  <fragmenstein_runtime>  (222) 
0.7351565361022949

>  <fragmenstein_outcome>  (222) 
acceptable

>  <fragmenstein_mode>  (222) 
expansion

>  <fragmenstein_error>  (222) 


$$$$
C1137-P106
     RDKit          3D

 51 53  0  0  0  0  0  0  0  0999 V2000
   17.9704   -1.8111   10.1179 C   0  0  0  0  0  0  0  0  0  0  0  0
   17.9758   -0.7573   11.2242 C   0  0  0  0  0  0  0  0  0  0  0  0
   18.6571   -1.2932   12.4957 C   0  0  0  0  0  0  0  0  0  0  0  0
   18.4278   -0.4191   13.7413 C   0  0  0  0  0  0  0  0  0  0  0  0
   17.1195    0.3630   13.7739 C   0  0  0  0  0  0  0  0  0  0  0  0
   16.1111   -0.2279   12.9057 N   0  0  0  0  0  0  0  0  0  0  0  0
   15.3544   -1.6843   13.3987 S   0  0  0  0  0  0  0  0  0  0  0  0
   13.6481   -1.5724   12.9793 C   0  0  0  0  0  0  0  0  0  0  0  0
   15.9525   -2.6755   12.5457 O   0  0  0  0  0  0  0  0  0  0  0  0
   15.4480   -1.6471   14.9207 N   0  0  0  0  0  0  0  0  0  0  0  0
   16.2881   -2.5999   15.6682 C   0  0  0  0  0  0  0  0  0  0  0  0
   15.4576   -3.3446   16.7313 C   0  0  0  0  0  0  0  0  0  0  0  0
   14.9223   -2.5336   17.8027 O   0  0  0  0  0  0  0  0  0  0  0  0
   14.1499   -1.4569   17.3873 C   0  0  0  0  0  0  0  0  0  0  0  0
   14.5509   -0.2073   17.6820 C   0  0  0  0  0  0  0  0  0  0  0  0
   13.7261    0.8514   17.0852 C   0  0  0  0  0  0  0  0  0  0  0  0
   14.1809    2.0711   17.3981 O   0  0  0  0  0  0  0  0  0  0  0  0
   12.6710    0.7549   16.3569 N   0  0  0  0  0  0  0  0  0  0  0  0
   12.2683   -0.5264   16.1183 C   0  0  0  0  0  0  0  0  0  0  0  0
   11.2076   -0.9313   15.4523 N   0  0  0  0  0  0  0  0  0  0  0  0
   11.2482   -2.2965   15.4675 C   0  0  0  0  0  0  0  0  0  0  0  0
   12.2853   -2.7455   16.2460 C   0  0  0  0  0  0  0  0  0  0  0  0
   12.9784   -1.6203   16.6266 N   0  0  0  0  0  0  0  0  0  0  0  0
   16.6115   -0.0769   11.5138 C   0  0  0  0  0  0  0  0  0  0  0  0
   15.4886   -0.2819   10.4967 C   0  0  0  0  0  0  0  0  0  0  0  0
   14.3675    0.5212   10.8856 O   0  0  0  0  0  0  0  0  0  0  0  0
   17.3129   -2.6515   10.3557 H   0  0  0  0  0  0  0  0  0  0  0  0
   17.6494   -1.3823    9.1636 H   0  0  0  0  0  0  0  0  0  0  0  0
   18.9782   -2.2135    9.9668 H   0  0  0  0  0  0  0  0  0  0  0  0
   18.6346    0.0460   10.8601 H   0  0  0  0  0  0  0  0  0  0  0  0
   18.3189   -2.3120   12.7123 H   0  0  0  0  0  0  0  0  0  0  0  0
   19.7368   -1.3903   12.3222 H   0  0  0  0  0  0  0  0  0  0  0  0
   18.5147   -1.0568   14.6273 H   0  0  0  0  0  0  0  0  0  0  0  0
   19.2540    0.3000   13.8150 H   0  0  0  0  0  0  0  0  0  0  0  0
   17.3150    1.3990   13.4636 H   0  0  0  0  0  0  0  0  0  0  0  0
   16.7688    0.4763   14.8062 H   0  0  0  0  0  0  0  0  0  0  0  0
   13.5794   -1.6570   11.9025 H   0  0  0  0  0  0  0  0  0  0  0  0
   13.1161   -2.4123   13.4199 H   0  0  0  0  0  0  0  0  0  0  0  0
   13.2409   -0.6233   13.3269 H   0  0  0  0  0  0  0  0  0  0  0  0
   17.0774   -2.0326   16.1723 H   0  0  0  0  0  0  0  0  0  0  0  0
   16.7640   -3.3297   15.0050 H   0  0  0  0  0  0  0  0  0  0  0  0
   16.1186   -4.0693   17.2214 H   0  0  0  0  0  0  0  0  0  0  0  0
   14.6672   -3.9376   16.2664 H   0  0  0  0  0  0  0  0  0  0  0  0
   15.4405    0.0340   18.2417 H   0  0  0  0  0  0  0  0  0  0  0  0
   13.5620    2.7177   17.0154 H   0  0  0  0  0  0  0  0  0  0  0  0
   10.5081   -2.8833   14.9382 H   0  0  0  0  0  0  0  0  0  0  0  0
   12.5763   -3.7403   16.5445 H   0  0  0  0  0  0  0  0  0  0  0  0
   16.8154    1.0024   11.4140 H   0  0  0  0  0  0  0  0  0  0  0  0
   15.1675   -1.3222   10.4092 H   0  0  0  0  0  0  0  0  0  0  0  0
   15.7958    0.0588    9.5029 H   0  0  0  0  0  0  0  0  0  0  0  0
   14.5054    0.7912   11.8137 H   0  0  0  0  0  0  0  0  0  0  0  0
  1  2  1  0
  2  3  1  0
  3  4  1  0
  4  5  1  0
  5  6  1  0
  6  7  1  0
  7  8  1  0
  7  9  2  0
  7 10  2  0
 10 11  1  0
 11 12  1  0
 12 13  1  0
 13 14  1  0
 14 15  2  0
 15 16  1  0
 16 17  1  0
 16 18  2  0
 18 19  1  0
 19 20  2  0
 20 21  1  0
 21 22  2  0
 22 23  1  0
  6 24  1  0
 24 25  1  0
 25 26  1  0
 24  2  1  0
 23 14  1  0
 23 19  1  0
  1 27  1  0
  1 28  1  0
  1 29  1  0
  2 30  1  0
  3 31  1  0
  3 32  1  0
  4 33  1  0
  4 34  1  0
  5 35  1  0
  5 36  1  0
  8 37  1  0
  8 38  1  0
  8 39  1  0
 11 40  1  0
 11 41  1  0
 12 42  1  0
 12 43  1  0
 15 44  1  0
 17 45  1  0
 21 46  1  0
 22 47  1  0
 24 48  1  0
 25 49  1  0
 25 50  1  0
 26 51  1  0
M  END
>  <Energy>  (223) 
-29.55097255646244

>  <compound_id>  (223) 
1137

>  <target_id>  (223) 
1

>  <reference_id>  (223) 
106

>  <inspiration_ids>  (223) 
[106, 31]

>  <energy_score>  (223) 
-75.99659005757272

>  <distance_score>  (223) 
1.4078051573615675

>  <path>  (223) 
/opt/xchem-fragalysis-2/maxwin/BulkDock/SCRATCH/505734/C1137-P106/C1137-P106.minimised.mol

>  <scratch_subdir>  (223) 
/opt/xchem-fragalysis-2/maxwin/BulkDock/SCRATCH/505734/C1137-P106

>  <fragmenstein_runtime>  (223) 
1.9256327152252197

>  <fragmenstein_outcome>  (223) 
too moved

>  <fragmenstein_mode>  (223) 
expansion

>  <fragmenstein_error>  (223) 


$$$$
C1137-P31
     RDKit          3D

 51 53  0  0  0  0  0  0  0  0999 V2000
   17.1949   -2.0982   10.9358 C   0  0  0  0  0  0  0  0  0  0  0  0
   17.4077   -0.8648   11.8226 C   0  0  0  0  0  0  0  0  0  0  0  0
   18.6955   -0.1486   11.3753 C   0  0  0  0  0  0  0  0  0  0  0  0
   18.3693    1.1460   10.6499 C   0  0  0  0  0  0  0  0  0  0  0  0
   17.5722    2.0688   11.5689 C   0  0  0  0  0  0  0  0  0  0  0  0
   16.5092    1.4233   12.3433 N   0  0  0  0  0  0  0  0  0  0  0  0
   16.1990    1.9647   13.9311 S   0  0  0  0  0  0  0  0  0  0  0  0
   16.4048    3.7335   13.9250 C   0  0  0  0  0  0  0  0  0  0  0  0
   14.7852    1.7406   14.1392 O   0  0  0  0  0  0  0  0  0  0  0  0
   17.3376    1.3471   14.7568 N   0  0  0  0  0  0  0  0  0  0  0  0
   17.4567    1.7138   16.1892 C   0  0  0  0  0  0  0  0  0  0  0  0
   18.4031    0.7648   16.9538 C   0  0  0  0  0  0  0  0  0  0  0  0
   17.7108   -0.1627   17.8113 O   0  0  0  0  0  0  0  0  0  0  0  0
   17.0156   -1.1978   17.2176 C   0  0  0  0  0  0  0  0  0  0  0  0
   17.1212   -1.5548   15.9280 C   0  0  0  0  0  0  0  0  0  0  0  0
   16.2123   -2.6219   15.5078 C   0  0  0  0  0  0  0  0  0  0  0  0
   16.4478   -2.9156   14.2266 O   0  0  0  0  0  0  0  0  0  0  0  0
   15.3254   -3.2619   16.1799 N   0  0  0  0  0  0  0  0  0  0  0  0
   15.2399   -2.8737   17.4841 C   0  0  0  0  0  0  0  0  0  0  0  0
   14.4467   -3.3397   18.4266 N   0  0  0  0  0  0  0  0  0  0  0  0
   14.8037   -2.6968   19.5799 C   0  0  0  0  0  0  0  0  0  0  0  0
   15.8126   -1.7981   19.3464 C   0  0  0  0  0  0  0  0  0  0  0  0
   16.0907   -1.8982   18.0050 N   0  0  0  0  0  0  0  0  0  0  0  0
   16.1722    0.0823   11.8080 C   0  0  0  0  0  0  0  0  0  0  0  0
   14.9142   -0.5757   12.4132 C   0  0  0  0  0  0  0  0  0  0  0  0
   13.7745    0.2609   12.2099 O   0  0  0  0  0  0  0  0  0  0  0  0
   16.3523   -2.7053   11.2750 H   0  0  0  0  0  0  0  0  0  0  0  0
   17.0114   -1.8062    9.8969 H   0  0  0  0  0  0  0  0  0  0  0  0
   18.0780   -2.7467   10.9536 H   0  0  0  0  0  0  0  0  0  0  0  0
   17.5793   -1.2155   12.8434 H   0  0  0  0  0  0  0  0  0  0  0  0
   19.2991    0.0846   12.2625 H   0  0  0  0  0  0  0  0  0  0  0  0
   19.3220   -0.7865   10.7415 H   0  0  0  0  0  0  0  0  0  0  0  0
   19.2962    1.6454   10.3447 H   0  0  0  0  0  0  0  0  0  0  0  0
   17.8098    0.9358    9.7303 H   0  0  0  0  0  0  0  0  0  0  0  0
   17.1406    2.8837   10.9764 H   0  0  0  0  0  0  0  0  0  0  0  0
   18.2977    2.5315   12.2486 H   0  0  0  0  0  0  0  0  0  0  0  0
   16.0487    4.1219   14.8820 H   0  0  0  0  0  0  0  0  0  0  0  0
   17.4564    3.9889   13.7889 H   0  0  0  0  0  0  0  0  0  0  0  0
   15.8009    4.1518   13.1168 H   0  0  0  0  0  0  0  0  0  0  0  0
   16.4745    1.7441   16.6669 H   0  0  0  0  0  0  0  0  0  0  0  0
   17.8792    2.7252   16.2316 H   0  0  0  0  0  0  0  0  0  0  0  0
   18.9961    1.3794   17.6418 H   0  0  0  0  0  0  0  0  0  0  0  0
   19.1295    0.2499   16.3135 H   0  0  0  0  0  0  0  0  0  0  0  0
   17.7846   -1.1259   15.1958 H   0  0  0  0  0  0  0  0  0  0  0  0
   15.9643   -3.7236   13.9717 H   0  0  0  0  0  0  0  0  0  0  0  0
   14.3072   -2.9085   20.5194 H   0  0  0  0  0  0  0  0  0  0  0  0
   16.3433   -1.1126   19.9890 H   0  0  0  0  0  0  0  0  0  0  0  0
   15.8912    0.2559   10.7580 H   0  0  0  0  0  0  0  0  0  0  0  0
   15.0213   -0.7838   13.4811 H   0  0  0  0  0  0  0  0  0  0  0  0
   14.6843   -1.5207   11.9152 H   0  0  0  0  0  0  0  0  0  0  0  0
   13.8368    0.9337   12.9232 H   0  0  0  0  0  0  0  0  0  0  0  0
  1  2  1  0
  2  3  1  0
  3  4  1  0
  4  5  1  0
  5  6  1  0
  6  7  1  0
  7  8  1  0
  7  9  2  0
  7 10  2  0
 10 11  1  0
 11 12  1  0
 12 13  1  0
 13 14  1  0
 14 15  2  0
 15 16  1  0
 16 17  1  0
 16 18  2  0
 18 19  1  0
 19 20  2  0
 20 21  1  0
 21 22  2  0
 22 23  1  0
  6 24  1  0
 24 25  1  0
 25 26  1  0
 24  2  1  0
 23 14  1  0
 23 19  1  0
  1 27  1  0
  1 28  1  0
  1 29  1  0
  2 30  1  0
  3 31  1  0
  3 32  1  0
  4 33  1  0
  4 34  1  0
  5 35  1  0
  5 36  1  0
  8 37  1  0
  8 38  1  0
  8 39  1  0
 11 40  1  0
 11 41  1  0
 12 42  1  0
 12 43  1  0
 15 44  1  0
 17 45  1  0
 21 46  1  0
 22 47  1  0
 24 48  1  0
 25 49  1  0
 25 50  1  0
 26 51  1  0
M  END
>  <Energy>  (224) 
-44.072269557896938

>  <compound_id>  (224) 
1137

>  <target_id>  (224) 
1

>  <reference_id>  (224) 
31

>  <inspiration_ids>  (224) 
[106, 31]

>  <energy_score>  (224) 
-105.9891043153406

>  <distance_score>  (224) 
3.9677374048212646

>  <path>  (224) 
/opt/xchem-fragalysis-2/maxwin/BulkDock/SCRATCH/505734/C1137-P31/C1137-P31.minimised.mol

>  <scratch_subdir>  (224) 
/opt/xchem-fragalysis-2/maxwin/BulkDock/SCRATCH/505734/C1137-P31

>  <fragmenstein_runtime>  (224) 
3.2037572860717773

>  <fragmenstein_outcome>  (224) 
too moved

>  <fragmenstein_mode>  (224) 
expansion

>  <fragmenstein_error>  (224) 


$$$$
C3266-P106
     RDKit          3D

 33 34  0  0  0  0  0  0  0  0999 V2000
   12.5265   -3.3473   16.1425 C   0  0  0  0  0  0  0  0  0  0  0  0
   11.6391   -2.8779   14.9950 C   0  0  0  0  0  0  0  0  0  0  0  0
   11.2276   -1.4661   15.0785 N   0  0  0  0  0  0  0  0  0  0  0  0
   12.1820   -0.5570   15.3482 C   0  0  0  0  0  0  0  0  0  0  0  0
   12.5716   -0.2042   16.5988 C   0  0  0  0  0  0  0  0  0  0  0  0
   13.5989    0.6895   16.4798 N   0  0  0  0  0  0  0  0  0  0  0  0
   13.9513    0.5546   15.1355 C   0  0  0  0  0  0  0  0  0  0  0  0
   12.9955   -0.0143   14.4242 N   0  0  0  0  0  0  0  0  0  0  0  0
   15.2461    0.7088   14.7385 N   0  0  0  0  0  0  0  0  0  0  0  0
   16.2104    0.5994   15.7654 C   0  0  0  0  0  0  0  0  0  0  0  0
   16.3600   -0.8567   16.2889 C   0  0  0  0  0  0  0  0  0  0  0  0
   16.0383   -1.2521   17.7310 C   0  0  0  0  0  0  0  0  0  0  0  0
   16.2111    1.7311   16.5178 C   0  0  0  0  0  0  0  0  0  0  0  0
   16.3626    3.0808   15.8453 C   0  0  0  0  0  0  0  0  0  0  0  0
   15.4618    1.7865   17.6669 N   0  0  0  0  0  0  0  0  0  0  0  0
   14.2464    1.3087   17.5876 C   0  0  0  0  0  0  0  0  0  0  0  0
   12.1480   -3.0261   17.1122 H   0  0  0  0  0  0  0  0  0  0  0  0
   13.5449   -2.9596   16.0359 H   0  0  0  0  0  0  0  0  0  0  0  0
   12.5933   -4.4371   16.1676 H   0  0  0  0  0  0  0  0  0  0  0  0
   10.7276   -3.4818   14.9872 H   0  0  0  0  0  0  0  0  0  0  0  0
   12.1415   -3.0466   14.0365 H   0  0  0  0  0  0  0  0  0  0  0  0
   10.7587   -1.2734   14.1787 H   0  0  0  0  0  0  0  0  0  0  0  0
   12.2916   -0.5951   17.5380 H   0  0  0  0  0  0  0  0  0  0  0  0
   15.4592    0.1151   13.9378 H   0  0  0  0  0  0  0  0  0  0  0  0
   15.7962   -1.5382   15.6371 H   0  0  0  0  0  0  0  0  0  0  0  0
   17.4138   -1.1135   16.1121 H   0  0  0  0  0  0  0  0  0  0  0  0
   16.5515   -0.6049   18.4481 H   0  0  0  0  0  0  0  0  0  0  0  0
   16.3818   -2.2767   17.9122 H   0  0  0  0  0  0  0  0  0  0  0  0
   14.9670   -1.2400   17.9376 H   0  0  0  0  0  0  0  0  0  0  0  0
   17.0997    3.6773   16.3936 H   0  0  0  0  0  0  0  0  0  0  0  0
   16.7199    2.9931   14.8135 H   0  0  0  0  0  0  0  0  0  0  0  0
   15.4148    3.6297   15.8359 H   0  0  0  0  0  0  0  0  0  0  0  0
   13.6563    1.3279   18.5178 H   0  0  0  0  0  0  0  0  0  0  0  0
  1  2  1  0
  2  3  1  0
  3  4  1  0
  4  5  2  0
  5  6  1  0
  6  7  1  0
  7  8  2  0
  7  9  1  0
  9 10  1  0
 10 11  1  0
 11 12  1  0
 10 13  2  0
 13 14  1  0
 13 15  1  0
 15 16  2  0
  8  4  1  0
 16  6  1  0
  1 17  1  0
  1 18  1  0
  1 19  1  0
  2 20  1  0
  2 21  1  0
  3 22  1  0
  5 23  1  0
  9 24  1  0
 11 25  1  0
 11 26  1  0
 12 27  1  0
 12 28  1  0
 12 29  1  0
 14 30  1  0
 14 31  1  0
 14 32  1  0
 16 33  1  0
M  END
>  <Energy>  (225) 
54.144648074435494

>  <compound_id>  (225) 
3266

>  <target_id>  (225) 
1

>  <reference_id>  (225) 
106

>  <inspiration_ids>  (225) 
[106, 55]

>  <energy_score>  (225) 
24.27603647495897

>  <distance_score>  (225) 
2.15164225442868

>  <path>  (225) 
/opt/xchem-fragalysis-2/maxwin/BulkDock/SCRATCH/505734/C3266-P106/C3266-P106.minimised.mol

>  <scratch_subdir>  (225) 
/opt/xchem-fragalysis-2/maxwin/BulkDock/SCRATCH/505734/C3266-P106

>  <fragmenstein_runtime>  (225) 
1.493692398071289

>  <fragmenstein_outcome>  (225) 
too moved

>  <fragmenstein_mode>  (225) 
expansion

>  <fragmenstein_error>  (225) 


$$$$
C3266-P55
     RDKit          3D

 33 34  0  0  0  0  0  0  0  0999 V2000
   12.5173   -3.3644   16.1666 C   0  0  0  0  0  0  0  0  0  0  0  0
   11.6520   -2.8782   15.0099 C   0  0  0  0  0  0  0  0  0  0  0  0
   11.2469   -1.4645   15.1039 N   0  0  0  0  0  0  0  0  0  0  0  0
   12.2025   -0.5576   15.3789 C   0  0  0  0  0  0  0  0  0  0  0  0
   12.6380   -0.2444   16.6258 C   0  0  0  0  0  0  0  0  0  0  0  0
   13.6311    0.6869   16.4975 N   0  0  0  0  0  0  0  0  0  0  0  0
   13.9396    0.5972   15.1391 C   0  0  0  0  0  0  0  0  0  0  0  0
   12.9650    0.0400   14.4444 N   0  0  0  0  0  0  0  0  0  0  0  0
   15.2222    0.7673   14.7093 N   0  0  0  0  0  0  0  0  0  0  0  0
   16.2145    0.6338   15.7079 C   0  0  0  0  0  0  0  0  0  0  0  0
   16.3716   -0.8343   16.1995 C   0  0  0  0  0  0  0  0  0  0  0  0
   16.1191   -1.2512   17.6500 C   0  0  0  0  0  0  0  0  0  0  0  0
   16.2345    1.7489   16.4848 C   0  0  0  0  0  0  0  0  0  0  0  0
   16.3710    3.1125   15.8389 C   0  0  0  0  0  0  0  0  0  0  0  0
   15.5151    1.7789   17.6539 N   0  0  0  0  0  0  0  0  0  0  0  0
   14.3027    1.2901   17.5995 C   0  0  0  0  0  0  0  0  0  0  0  0
   12.1253   -3.0486   17.1324 H   0  0  0  0  0  0  0  0  0  0  0  0
   13.5406   -2.9848   16.0792 H   0  0  0  0  0  0  0  0  0  0  0  0
   12.5752   -4.4544   16.1858 H   0  0  0  0  0  0  0  0  0  0  0  0
   10.7370   -3.4766   14.9798 H   0  0  0  0  0  0  0  0  0  0  0  0
   12.1699   -3.0405   14.0582 H   0  0  0  0  0  0  0  0  0  0  0  0
   10.7763   -1.2608   14.2082 H   0  0  0  0  0  0  0  0  0  0  0  0
   12.4110   -0.6714   17.5647 H   0  0  0  0  0  0  0  0  0  0  0  0
   15.4151    0.1937   13.8891 H   0  0  0  0  0  0  0  0  0  0  0  0
   15.7695   -1.4995   15.5654 H   0  0  0  0  0  0  0  0  0  0  0  0
   17.4128   -1.0982   15.9666 H   0  0  0  0  0  0  0  0  0  0  0  0
   16.6695   -0.6165   18.3506 H   0  0  0  0  0  0  0  0  0  0  0  0
   16.4676   -2.2795   17.7981 H   0  0  0  0  0  0  0  0  0  0  0  0
   15.0597   -1.2398   17.9101 H   0  0  0  0  0  0  0  0  0  0  0  0
   17.1221    3.6964   16.3818 H   0  0  0  0  0  0  0  0  0  0  0  0
   16.7025    3.0475   14.7969 H   0  0  0  0  0  0  0  0  0  0  0  0
   15.4239    3.6620   15.8651 H   0  0  0  0  0  0  0  0  0  0  0  0
   13.7408    1.2818   18.5467 H   0  0  0  0  0  0  0  0  0  0  0  0
  1  2  1  0
  2  3  1  0
  3  4  1  0
  4  5  2  0
  5  6  1  0
  6  7  1  0
  7  8  2  0
  7  9  1  0
  9 10  1  0
 10 11  1  0
 11 12  1  0
 10 13  2  0
 13 14  1  0
 13 15  1  0
 15 16  2  0
  8  4  1  0
 16  6  1  0
  1 17  1  0
  1 18  1  0
  1 19  1  0
  2 20  1  0
  2 21  1  0
  3 22  1  0
  5 23  1  0
  9 24  1  0
 11 25  1  0
 11 26  1  0
 12 27  1  0
 12 28  1  0
 12 29  1  0
 14 30  1  0
 14 31  1  0
 14 32  1  0
 16 33  1  0
M  END
>  <Energy>  (226) 
55.067321351564189

>  <compound_id>  (226) 
3266

>  <target_id>  (226) 
1

>  <reference_id>  (226) 
55

>  <inspiration_ids>  (226) 
[106, 55]

>  <energy_score>  (226) 
25.198709752087183

>  <distance_score>  (226) 
2.1363754250979836

>  <path>  (226) 
/opt/xchem-fragalysis-2/maxwin/BulkDock/SCRATCH/505734/C3266-P55/C3266-P55.minimised.mol

>  <scratch_subdir>  (226) 
/opt/xchem-fragalysis-2/maxwin/BulkDock/SCRATCH/505734/C3266-P55

>  <fragmenstein_runtime>  (226) 
1.237314224243164

>  <fragmenstein_outcome>  (226) 
too moved

>  <fragmenstein_mode>  (226) 
expansion

>  <fragmenstein_error>  (226) 


$$$$
C3267-P106
     RDKit          3D

 43 43  0  0  0  0  0  0  0  0999 V2000
   12.9675   -2.3981   25.0651 C   0  0  0  0  0  0  0  0  0  0  0  0
   14.3366   -2.4990   24.4287 C   0  0  0  0  0  0  0  0  0  0  0  0
   15.3062   -2.7574   25.0225 O   0  0  0  0  0  0  0  0  0  0  0  0
   14.1350   -2.1780   22.9283 N   0  0  0  0  0  0  0  0  0  0  0  0
   15.0675   -2.2017   21.8359 C   0  0  0  0  0  0  0  0  0  0  0  0
   15.5806   -3.6048   21.5199 C   0  0  0  0  0  0  0  0  0  0  0  0
   14.4902   -4.6609   21.3154 C   0  0  0  0  0  0  0  0  0  0  0  0
   13.5432   -4.4004   20.1392 C   0  0  0  0  0  0  0  0  0  0  0  0
   14.1812   -4.6411   18.8323 N   0  0  0  0  0  0  0  0  0  0  0  0
   13.9868   -3.8519   17.7262 C   0  0  0  0  0  0  0  0  0  0  0  0
   14.6744   -3.6803   16.5396 C   0  0  0  0  0  0  0  0  0  0  0  0
   14.2574   -2.5429   15.8642 N   0  0  0  0  0  0  0  0  0  0  0  0
   13.2837   -2.0530   16.5877 C   0  0  0  0  0  0  0  0  0  0  0  0
   12.6959   -0.8267   16.5302 N   0  0  0  0  0  0  0  0  0  0  0  0
   13.6131    0.3159   16.5082 C   0  0  0  0  0  0  0  0  0  0  0  0
   12.7882    1.4660   16.3789 O   0  0  0  0  0  0  0  0  0  0  0  0
   14.4386    0.4738   17.7868 C   0  0  0  0  0  0  0  0  0  0  0  0
   15.6710   -0.4112   17.8106 C   0  0  0  0  0  0  0  0  0  0  0  0
   15.5082   -1.4531   18.7553 O   0  0  0  0  0  0  0  0  0  0  0  0
   12.9610   -2.9499   17.5741 N   0  0  0  0  0  0  0  0  0  0  0  0
   12.2833   -3.1066   24.5906 H   0  0  0  0  0  0  0  0  0  0  0  0
   13.0418   -2.6449   26.1282 H   0  0  0  0  0  0  0  0  0  0  0  0
   12.5833   -1.3792   24.9670 H   0  0  0  0  0  0  0  0  0  0  0  0
   13.1596   -1.9149   22.7627 H   0  0  0  0  0  0  0  0  0  0  0  0
   14.5574   -1.7562   20.9807 H   0  0  0  0  0  0  0  0  0  0  0  0
   15.9107   -1.5587   22.1074 H   0  0  0  0  0  0  0  0  0  0  0  0
   16.2159   -3.9398   22.3499 H   0  0  0  0  0  0  0  0  0  0  0  0
   16.2265   -3.5607   20.6356 H   0  0  0  0  0  0  0  0  0  0  0  0
   13.8917   -4.7446   22.2307 H   0  0  0  0  0  0  0  0  0  0  0  0
   14.9737   -5.6367   21.1796 H   0  0  0  0  0  0  0  0  0  0  0  0
   13.1357   -3.3896   20.2090 H   0  0  0  0  0  0  0  0  0  0  0  0
   12.7035   -5.0980   20.2222 H   0  0  0  0  0  0  0  0  0  0  0  0
   15.0671   -5.1404   18.9051 H   0  0  0  0  0  0  0  0  0  0  0  0
   15.5186   -4.2521   16.1775 H   0  0  0  0  0  0  0  0  0  0  0  0
   12.1785   -0.7226   15.6566 H   0  0  0  0  0  0  0  0  0  0  0  0
   14.2536    0.2811   15.6183 H   0  0  0  0  0  0  0  0  0  0  0  0
   13.3642    2.2468   16.4128 H   0  0  0  0  0  0  0  0  0  0  0  0
   14.7803    1.5159   17.8431 H   0  0  0  0  0  0  0  0  0  0  0  0
   13.8162    0.3155   18.6740 H   0  0  0  0  0  0  0  0  0  0  0  0
   16.5316    0.1762   18.1489 H   0  0  0  0  0  0  0  0  0  0  0  0
   15.9351   -0.8168   16.8297 H   0  0  0  0  0  0  0  0  0  0  0  0
   15.9428   -2.2408   18.3843 H   0  0  0  0  0  0  0  0  0  0  0  0
   12.2140   -2.8643   18.2279 H   0  0  0  0  0  0  0  0  0  0  0  0
  1  2  1  0
  2  3  2  0
  2  4  1  0
  4  5  1  0
  5  6  1  0
  6  7  1  0
  7  8  1  0
  8  9  1  0
  9 10  1  0
 10 11  2  0
 11 12  1  0
 12 13  2  0
 13 14  1  0
 14 15  1  0
 15 16  1  0
 15 17  1  0
 17 18  1  0
 18 19  1  0
 13 20  1  0
 20 10  1  0
  1 21  1  0
  1 22  1  0
  1 23  1  0
  4 24  1  0
  5 25  1  0
  5 26  1  0
  6 27  1  0
  6 28  1  0
  7 29  1  0
  7 30  1  0
  8 31  1  0
  8 32  1  0
  9 33  1  0
 11 34  1  0
 14 35  1  0
 15 36  1  0
 16 37  1  0
 17 38  1  0
 17 39  1  0
 18 40  1  0
 18 41  1  0
 19 42  1  0
 20 43  1  0
M  END
>  <Energy>  (227) 
-47.14443371387798

>  <compound_id>  (227) 
3267

>  <target_id>  (227) 
1

>  <reference_id>  (227) 
106

>  <inspiration_ids>  (227) 
[106, 60]

>  <energy_score>  (227) 
-21.02472336146746

>  <distance_score>  (227) 
3.4136307072849346

>  <path>  (227) 
/opt/xchem-fragalysis-2/maxwin/BulkDock/SCRATCH/505734/C3267-P106/C3267-P106.minimised.mol

>  <scratch_subdir>  (227) 
/opt/xchem-fragalysis-2/maxwin/BulkDock/SCRATCH/505734/C3267-P106

>  <fragmenstein_runtime>  (227) 
2.317434310913086

>  <fragmenstein_outcome>  (227) 
too moved

>  <fragmenstein_mode>  (227) 
expansion

>  <fragmenstein_error>  (227) 


$$$$
C3267-P60
     RDKit          3D

 43 43  0  0  0  0  0  0  0  0999 V2000
   17.8611   -5.5710   18.0449 C   0  0  0  0  0  0  0  0  0  0  0  0
   17.6522   -4.1974   18.6439 C   0  0  0  0  0  0  0  0  0  0  0  0
   17.9251   -3.2066   18.0904 O   0  0  0  0  0  0  0  0  0  0  0  0
   17.0324   -4.4264   20.0468 N   0  0  0  0  0  0  0  0  0  0  0  0
   16.7104   -3.4877   21.0921 C   0  0  0  0  0  0  0  0  0  0  0  0
   15.5038   -3.8934   21.9265 C   0  0  0  0  0  0  0  0  0  0  0  0
   14.1319   -3.6172   21.2990 C   0  0  0  0  0  0  0  0  0  0  0  0
   13.6849   -4.6138   20.2226 C   0  0  0  0  0  0  0  0  0  0  0  0
   14.2449   -4.3134   18.8892 N   0  0  0  0  0  0  0  0  0  0  0  0
   13.5194   -3.5892   17.9687 C   0  0  0  0  0  0  0  0  0  0  0  0
   12.6432   -3.8709   16.9408 C   0  0  0  0  0  0  0  0  0  0  0  0
   12.2441   -2.7198   16.2738 N   0  0  0  0  0  0  0  0  0  0  0  0
   12.8924   -1.7333   16.8398 C   0  0  0  0  0  0  0  0  0  0  0  0
   12.7063   -0.4070   16.6240 N   0  0  0  0  0  0  0  0  0  0  0  0
   13.7613    0.5671   16.4599 C   0  0  0  0  0  0  0  0  0  0  0  0
   13.1058    1.8288   16.4622 O   0  0  0  0  0  0  0  0  0  0  0  0
   14.8148    0.5929   17.5603 C   0  0  0  0  0  0  0  0  0  0  0  0
   15.9274   -0.4156   17.3078 C   0  0  0  0  0  0  0  0  0  0  0  0
   16.0096   -1.3088   18.4118 O   0  0  0  0  0  0  0  0  0  0  0  0
   13.6704   -2.2306   17.8516 N   0  0  0  0  0  0  0  0  0  0  0  0
   18.6937   -6.0675   18.5499 H   0  0  0  0  0  0  0  0  0  0  0  0
   16.9535   -6.1720   18.1399 H   0  0  0  0  0  0  0  0  0  0  0  0
   18.0963   -5.4708   16.9814 H   0  0  0  0  0  0  0  0  0  0  0  0
   17.0050   -5.4215   20.2473 H   0  0  0  0  0  0  0  0  0  0  0  0
   17.5962   -3.4470   21.7354 H   0  0  0  0  0  0  0  0  0  0  0  0
   16.5866   -2.4941   20.6547 H   0  0  0  0  0  0  0  0  0  0  0  0
   15.5476   -3.3119   22.8569 H   0  0  0  0  0  0  0  0  0  0  0  0
   15.5765   -4.9479   22.2191 H   0  0  0  0  0  0  0  0  0  0  0  0
   14.0927   -2.5901   20.9188 H   0  0  0  0  0  0  0  0  0  0  0  0
   13.3980   -3.6803   22.1129 H   0  0  0  0  0  0  0  0  0  0  0  0
   12.5965   -4.6539   20.1794 H   0  0  0  0  0  0  0  0  0  0  0  0
   14.0157   -5.6173   20.5100 H   0  0  0  0  0  0  0  0  0  0  0  0
   15.1723   -3.9107   19.0507 H   0  0  0  0  0  0  0  0  0  0  0  0
   12.2698   -4.8369   16.6361 H   0  0  0  0  0  0  0  0  0  0  0  0
   12.0004   -0.2410   15.9099 H   0  0  0  0  0  0  0  0  0  0  0  0
   14.2228    0.4497   15.4725 H   0  0  0  0  0  0  0  0  0  0  0  0
   13.7819    2.5120   16.3295 H   0  0  0  0  0  0  0  0  0  0  0  0
   15.2775    1.5890   17.5782 H   0  0  0  0  0  0  0  0  0  0  0  0
   14.3539    0.4773   18.5493 H   0  0  0  0  0  0  0  0  0  0  0  0
   16.8886    0.1047   17.2343 H   0  0  0  0  0  0  0  0  0  0  0  0
   15.7909   -0.9985   16.3916 H   0  0  0  0  0  0  0  0  0  0  0  0
   16.8106   -1.8602   18.2480 H   0  0  0  0  0  0  0  0  0  0  0  0
   14.2574   -1.6927   18.4688 H   0  0  0  0  0  0  0  0  0  0  0  0
  1  2  1  0
  2  3  2  0
  2  4  1  0
  4  5  1  0
  5  6  1  0
  6  7  1  0
  7  8  1  0
  8  9  1  0
  9 10  1  0
 10 11  2  0
 11 12  1  0
 12 13  2  0
 13 14  1  0
 14 15  1  0
 15 16  1  0
 15 17  1  0
 17 18  1  0
 18 19  1  0
 13 20  1  0
 20 10  1  0
  1 21  1  0
  1 22  1  0
  1 23  1  0
  4 24  1  0
  5 25  1  0
  5 26  1  0
  6 27  1  0
  6 28  1  0
  7 29  1  0
  7 30  1  0
  8 31  1  0
  8 32  1  0
  9 33  1  0
 11 34  1  0
 14 35  1  0
 15 36  1  0
 16 37  1  0
 17 38  1  0
 17 39  1  0
 18 40  1  0
 18 41  1  0
 19 42  1  0
 20 43  1  0
M  END
>  <Energy>  (228) 
-50.164696722329197

>  <compound_id>  (228) 
3267

>  <target_id>  (228) 
1

>  <reference_id>  (228) 
60

>  <inspiration_ids>  (228) 
[106, 60]

>  <energy_score>  (228) 
-24.04498636991929

>  <distance_score>  (228) 
2.5256427938736112

>  <path>  (228) 
/opt/xchem-fragalysis-2/maxwin/BulkDock/SCRATCH/505734/C3267-P60/C3267-P60.minimised.mol

>  <scratch_subdir>  (228) 
/opt/xchem-fragalysis-2/maxwin/BulkDock/SCRATCH/505734/C3267-P60

>  <fragmenstein_runtime>  (228) 
2.614102602005005

>  <fragmenstein_outcome>  (228) 
too moved

>  <fragmenstein_mode>  (228) 
expansion

>  <fragmenstein_error>  (228) 


$$$$
C3268-P106
     RDKit          3D

 41 44  0  0  0  0  0  0  0  0999 V2000
   17.7184    1.4306   12.8130 C   0  0  0  0  0  0  0  0  0  0  0  0
   17.6449    0.4624   13.9821 C   0  0  0  0  0  0  0  0  0  0  0  0
   16.5442   -0.4629   13.8843 N   0  0  0  0  0  0  0  0  0  0  0  0
   15.2245   -0.0273   13.7516 N   0  0  0  0  0  0  0  0  0  0  0  0
   14.4140   -0.9658   14.5795 C   0  0  0  0  0  0  0  0  0  0  0  0
   15.2188   -2.2469   14.4729 C   0  0  0  0  0  0  0  0  0  0  0  0
   16.6198   -1.7411   14.4102 C   0  0  0  0  0  0  0  0  0  0  0  0
   17.6217   -2.3636   14.7254 O   0  0  0  0  0  0  0  0  0  0  0  0
   14.2122   -0.3518   15.9220 C   0  0  0  0  0  0  0  0  0  0  0  0
   14.9831   -0.3187   17.0615 C   0  0  0  0  0  0  0  0  0  0  0  0
   15.9472   -1.2522   17.2580 O   0  0  0  0  0  0  0  0  0  0  0  0
   14.7318    0.6704   17.9896 C   0  0  0  0  0  0  0  0  0  0  0  0
   13.6632    1.5070   17.7318 C   0  0  0  0  0  0  0  0  0  0  0  0
   13.4428    2.5779   18.5299 O   0  0  0  0  0  0  0  0  0  0  0  0
   12.7553    1.3493   16.7591 N   0  0  0  0  0  0  0  0  0  0  0  0
   13.0345    0.3779   15.8910 C   0  0  0  0  0  0  0  0  0  0  0  0
   12.1312   -0.0402   14.8709 N   0  0  0  0  0  0  0  0  0  0  0  0
   11.1575   -0.9464   15.5108 C   0  0  0  0  0  0  0  0  0  0  0  0
   11.4343   -2.3734   15.2997 N   0  0  0  0  0  0  0  0  0  0  0  0
   12.1929   -3.0611   16.3247 C   0  0  0  0  0  0  0  0  0  0  0  0
   12.6198   -2.2036   17.2742 F   0  0  0  0  0  0  0  0  0  0  0  0
   12.1943   -2.2830   14.0587 C   0  0  0  0  0  0  0  0  0  0  0  0
   12.9623   -0.9600   14.0304 C   0  0  0  0  0  0  0  0  0  0  0  0
   16.8303    2.0687   12.7638 H   0  0  0  0  0  0  0  0  0  0  0  0
   17.7972    0.8906   11.8636 H   0  0  0  0  0  0  0  0  0  0  0  0
   18.5940    2.0796   12.9128 H   0  0  0  0  0  0  0  0  0  0  0  0
   17.5409    1.0114   14.9254 H   0  0  0  0  0  0  0  0  0  0  0  0
   18.5823   -0.1019   14.0432 H   0  0  0  0  0  0  0  0  0  0  0  0
   15.1152    0.9274   14.1052 H   0  0  0  0  0  0  0  0  0  0  0  0
   15.1001   -2.9242   15.3196 H   0  0  0  0  0  0  0  0  0  0  0  0
   15.0506   -2.7442   13.5147 H   0  0  0  0  0  0  0  0  0  0  0  0
   16.3377   -1.1383   18.1418 H   0  0  0  0  0  0  0  0  0  0  0  0
   15.3426    0.8213   18.8695 H   0  0  0  0  0  0  0  0  0  0  0  0
   12.5546    2.8730   18.2416 H   0  0  0  0  0  0  0  0  0  0  0  0
   10.1948   -0.7405   15.0233 H   0  0  0  0  0  0  0  0  0  0  0  0
   10.9710   -0.7020   16.5559 H   0  0  0  0  0  0  0  0  0  0  0  0
   13.0641   -3.6045   15.9523 H   0  0  0  0  0  0  0  0  0  0  0  0
   11.5691   -3.8204   16.7956 H   0  0  0  0  0  0  0  0  0  0  0  0
   12.7878   -3.1444   13.8276 H   0  0  0  0  0  0  0  0  0  0  0  0
   11.4888   -2.2652   13.2356 H   0  0  0  0  0  0  0  0  0  0  0  0
   12.9511   -0.5856   12.9989 H   0  0  0  0  0  0  0  0  0  0  0  0
  1  2  1  0
  2  3  1  0
  3  4  1  0
  4  5  1  0
  5  6  1  0
  6  7  1  0
  7  8  2  0
  5  9  1  0
  9 10  2  0
 10 11  1  0
 10 12  1  0
 12 13  2  0
 13 14  1  0
 13 15  1  0
 15 16  2  0
 16 17  1  0
 17 18  1  0
 18 19  1  0
 19 20  1  0
 20 21  1  0
 19 22  1  0
 22 23  1  0
  7  3  1  0
 16  9  1  0
 23 17  1  0
 23  5  1  0
  1 24  1  0
  1 25  1  0
  1 26  1  0
  2 27  1  0
  2 28  1  0
  4 29  1  0
  6 30  1  0
  6 31  1  0
 11 32  1  0
 12 33  1  0
 14 34  1  0
 18 35  1  0
 18 36  1  0
 20 37  1  0
 20 38  1  0
 22 39  1  0
 22 40  1  0
 23 41  1  0
M  END
>  <Energy>  (229) 
-7.1383475819372988

>  <compound_id>  (229) 
3268

>  <target_id>  (229) 
1

>  <reference_id>  (229) 
106

>  <inspiration_ids>  (229) 
[106, 61]

>  <energy_score>  (229) 
-48.10150869702355

>  <distance_score>  (229) 
1.9331942455452262

>  <path>  (229) 
/opt/xchem-fragalysis-2/maxwin/BulkDock/SCRATCH/505734/C3268-P106/C3268-P106.minimised.mol

>  <scratch_subdir>  (229) 
/opt/xchem-fragalysis-2/maxwin/BulkDock/SCRATCH/505734/C3268-P106

>  <fragmenstein_runtime>  (229) 
3.332723617553711

>  <fragmenstein_outcome>  (229) 
too moved

>  <fragmenstein_mode>  (229) 
expansion

>  <fragmenstein_error>  (229) 


$$$$
C3268-P61
     RDKit          3D

 41 44  0  0  0  0  0  0  0  0999 V2000
   18.7448   -0.3744   14.0129 C   0  0  0  0  0  0  0  0  0  0  0  0
   17.5825   -0.7996   13.1282 C   0  0  0  0  0  0  0  0  0  0  0  0
   16.4246   -1.2100   13.8845 N   0  0  0  0  0  0  0  0  0  0  0  0
   15.5859   -0.2571   14.4332 N   0  0  0  0  0  0  0  0  0  0  0  0
   14.5380   -1.0196   15.1672 C   0  0  0  0  0  0  0  0  0  0  0  0
   15.1394   -2.3994   15.4077 C   0  0  0  0  0  0  0  0  0  0  0  0
   16.3183   -2.4386   14.4949 C   0  0  0  0  0  0  0  0  0  0  0  0
   17.0752   -3.3894   14.3721 O   0  0  0  0  0  0  0  0  0  0  0  0
   14.2028   -0.2320   16.3824 C   0  0  0  0  0  0  0  0  0  0  0  0
   14.9319   -0.0261   17.5340 C   0  0  0  0  0  0  0  0  0  0  0  0
   15.9664   -0.8466   17.8489 O   0  0  0  0  0  0  0  0  0  0  0  0
   14.6140    1.0589   18.3146 C   0  0  0  0  0  0  0  0  0  0  0  0
   13.5421    1.8246   17.9009 C   0  0  0  0  0  0  0  0  0  0  0  0
   13.2608    2.9658   18.5714 O   0  0  0  0  0  0  0  0  0  0  0  0
   12.6950    1.5389   16.9001 N   0  0  0  0  0  0  0  0  0  0  0  0
   13.0410    0.4853   16.1616 C   0  0  0  0  0  0  0  0  0  0  0  0
   12.2654    0.0175   15.0744 N   0  0  0  0  0  0  0  0  0  0  0  0
   11.2306   -0.9059   15.5739 C   0  0  0  0  0  0  0  0  0  0  0  0
   11.4458   -2.3032   15.1836 N   0  0  0  0  0  0  0  0  0  0  0  0
   12.0102   -3.1763   16.1846 C   0  0  0  0  0  0  0  0  0  0  0  0
   12.7686   -2.4881   17.0649 F   0  0  0  0  0  0  0  0  0  0  0  0
   12.3476   -2.1020   14.0576 C   0  0  0  0  0  0  0  0  0  0  0  0
   13.2121   -0.8755   14.3340 C   0  0  0  0  0  0  0  0  0  0  0  0
   19.0525   -1.1865   14.6795 H   0  0  0  0  0  0  0  0  0  0  0  0
   18.4748    0.4845   14.6358 H   0  0  0  0  0  0  0  0  0  0  0  0
   19.6052   -0.0919   13.3984 H   0  0  0  0  0  0  0  0  0  0  0  0
   17.8990   -1.6437   12.5048 H   0  0  0  0  0  0  0  0  0  0  0  0
   17.2926    0.0181   12.4588 H   0  0  0  0  0  0  0  0  0  0  0  0
   16.1344    0.2755   15.1166 H   0  0  0  0  0  0  0  0  0  0  0  0
   15.5060   -2.5734   16.4199 H   0  0  0  0  0  0  0  0  0  0  0  0
   14.4838   -3.2202   15.1650 H   0  0  0  0  0  0  0  0  0  0  0  0
   16.2596   -0.6555   18.7575 H   0  0  0  0  0  0  0  0  0  0  0  0
   15.1835    1.3466   19.1882 H   0  0  0  0  0  0  0  0  0  0  0  0
   12.3489    3.1654   18.2771 H   0  0  0  0  0  0  0  0  0  0  0  0
   10.2870   -0.5867   15.1123 H   0  0  0  0  0  0  0  0  0  0  0  0
   11.0624   -0.8022   16.6428 H   0  0  0  0  0  0  0  0  0  0  0  0
   11.2296   -3.6905   16.7282 H   0  0  0  0  0  0  0  0  0  0  0  0
   12.6123   -3.9839   15.7656 H   0  0  0  0  0  0  0  0  0  0  0  0
   12.8867   -2.9699   13.7338 H   0  0  0  0  0  0  0  0  0  0  0  0
   11.7217   -1.8643   13.1952 H   0  0  0  0  0  0  0  0  0  0  0  0
   13.4248   -0.4017   13.3646 H   0  0  0  0  0  0  0  0  0  0  0  0
  1  2  1  0
  2  3  1  0
  3  4  1  0
  4  5  1  0
  5  6  1  0
  6  7  1  0
  7  8  2  0
  5  9  1  0
  9 10  2  0
 10 11  1  0
 10 12  1  0
 12 13  2  0
 13 14  1  0
 13 15  1  0
 15 16  2  0
 16 17  1  0
 17 18  1  0
 18 19  1  0
 19 20  1  0
 20 21  1  0
 19 22  1  0
 22 23  1  0
  7  3  1  0
 16  9  1  0
 23 17  1  0
 23  5  1  0
  1 24  1  0
  1 25  1  0
  1 26  1  0
  2 27  1  0
  2 28  1  0
  4 29  1  0
  6 30  1  0
  6 31  1  0
 11 32  1  0
 12 33  1  0
 14 34  1  0
 18 35  1  0
 18 36  1  0
 20 37  1  0
 20 38  1  0
 22 39  1  0
 22 40  1  0
 23 41  1  0
M  END
>  <Energy>  (230) 
-9.9963866998642956

>  <compound_id>  (230) 
3268

>  <target_id>  (230) 
1

>  <reference_id>  (230) 
61

>  <inspiration_ids>  (230) 
[106, 61]

>  <energy_score>  (230) 
-50.95954781495004

>  <distance_score>  (230) 
1.7985330283262553

>  <path>  (230) 
/opt/xchem-fragalysis-2/maxwin/BulkDock/SCRATCH/505734/C3268-P61/C3268-P61.minimised.mol

>  <scratch_subdir>  (230) 
/opt/xchem-fragalysis-2/maxwin/BulkDock/SCRATCH/505734/C3268-P61

>  <fragmenstein_runtime>  (230) 
3.301450729370117

>  <fragmenstein_outcome>  (230) 
too moved

>  <fragmenstein_mode>  (230) 
expansion

>  <fragmenstein_error>  (230) 


$$$$
C3271-P106
     RDKit          3D

 32 33  0  0  0  0  0  0  0  0999 V2000
   17.0207    2.3906   15.9795 C   0  0  0  0  0  0  0  0  0  0  0  0
   15.7155    1.8265   15.3878 C   0  0  0  0  0  0  0  0  0  0  0  0
   15.8900    1.6961   13.8475 C   0  0  0  0  0  0  0  0  0  0  0  0
   14.6982    1.3547   13.1497 O   0  0  0  0  0  0  0  0  0  0  0  0
   14.6061    2.8752   15.7080 C   0  0  0  0  0  0  0  0  0  0  0  0
   13.3384    2.5442   15.1557 O   0  0  0  0  0  0  0  0  0  0  0  0
   15.5931    0.4727   16.0364 N   0  0  0  0  0  0  0  0  0  0  0  0
   14.4660   -0.3286   16.0699 C   0  0  0  0  0  0  0  0  0  0  0  0
   13.2167    0.2110   16.6632 C   0  0  0  0  0  0  0  0  0  0  0  0
   13.5178    1.0592   17.6630 O   0  0  0  0  0  0  0  0  0  0  0  0
   11.9980   -0.1308   16.4514 N   0  0  0  0  0  0  0  0  0  0  0  0
   11.9044   -1.3440   15.8602 C   0  0  0  0  0  0  0  0  0  0  0  0
   10.8302   -2.0112   15.5179 N   0  0  0  0  0  0  0  0  0  0  0  0
   11.2581   -3.2981   15.3762 C   0  0  0  0  0  0  0  0  0  0  0  0
   12.5652   -3.4399   15.7573 C   0  0  0  0  0  0  0  0  0  0  0  0
   13.0284   -2.1644   15.8187 N   0  0  0  0  0  0  0  0  0  0  0  0
   14.3266   -1.6547   15.8893 C   0  0  0  0  0  0  0  0  0  0  0  0
   15.4340   -2.4686   15.7309 O   0  0  0  0  0  0  0  0  0  0  0  0
   16.9545    2.4838   17.0702 H   0  0  0  0  0  0  0  0  0  0  0  0
   17.8738    1.7372   15.7602 H   0  0  0  0  0  0  0  0  0  0  0  0
   17.2525    3.3813   15.5720 H   0  0  0  0  0  0  0  0  0  0  0  0
   16.6413    0.9364   13.6049 H   0  0  0  0  0  0  0  0  0  0  0  0
   16.2402    2.6458   13.4274 H   0  0  0  0  0  0  0  0  0  0  0  0
   13.9400    1.7331   13.6478 H   0  0  0  0  0  0  0  0  0  0  0  0
   14.8835    3.8429   15.2725 H   0  0  0  0  0  0  0  0  0  0  0  0
   14.5092    3.0487   16.7844 H   0  0  0  0  0  0  0  0  0  0  0  0
   12.6761    2.6297   15.8723 H   0  0  0  0  0  0  0  0  0  0  0  0
   16.3724   -0.1239   15.7353 H   0  0  0  0  0  0  0  0  0  0  0  0
   14.4856    1.0977   17.7794 H   0  0  0  0  0  0  0  0  0  0  0  0
   10.5740   -4.0659   15.0661 H   0  0  0  0  0  0  0  0  0  0  0  0
   13.1880   -4.3042   15.9165 H   0  0  0  0  0  0  0  0  0  0  0  0
   15.1561   -3.3288   15.3736 H   0  0  0  0  0  0  0  0  0  0  0  0
  1  2  1  0
  2  3  1  0
  3  4  1  0
  2  5  1  0
  5  6  1  0
  2  7  1  0
  7  8  1  0
  8  9  1  0
  9 10  1  0
  9 11  2  0
 11 12  1  0
 12 13  2  0
 13 14  1  0
 14 15  2  0
 15 16  1  0
 16 17  1  0
 17 18  1  0
 17  8  2  0
 16 12  1  0
  1 19  1  0
  1 20  1  0
  1 21  1  0
  3 22  1  0
  3 23  1  0
  4 24  1  0
  5 25  1  0
  5 26  1  0
  6 27  1  0
  7 28  1  0
 10 29  1  0
 14 30  1  0
 15 31  1  0
 18 32  1  0
M  END
>  <Energy>  (231) 
127.59341963254239

>  <compound_id>  (231) 
3271

>  <target_id>  (231) 
1

>  <reference_id>  (231) 
106

>  <inspiration_ids>  (231) 
[106, 76]

>  <energy_score>  (231) 
-60.25552581183109

>  <distance_score>  (231) 
1.7769151727420254

>  <path>  (231) 
/opt/xchem-fragalysis-2/maxwin/BulkDock/SCRATCH/505734/C3271-P106/C3271-P106.minimised.mol

>  <scratch_subdir>  (231) 
/opt/xchem-fragalysis-2/maxwin/BulkDock/SCRATCH/505734/C3271-P106

>  <fragmenstein_runtime>  (231) 
1.0658094882965088

>  <fragmenstein_outcome>  (231) 
too moved

>  <fragmenstein_mode>  (231) 
expansion

>  <fragmenstein_error>  (231) 


$$$$
C3271-P76
     RDKit          3D

 32 33  0  0  0  0  0  0  0  0999 V2000
   16.6436    2.4578   16.2523 C   0  0  0  0  0  0  0  0  0  0  0  0
   15.5837    1.8615   15.2891 C   0  0  0  0  0  0  0  0  0  0  0  0
   16.1822    1.9467   13.8535 C   0  0  0  0  0  0  0  0  0  0  0  0
   15.2078    1.9889   12.8169 O   0  0  0  0  0  0  0  0  0  0  0  0
   14.3104    2.7462   15.4071 C   0  0  0  0  0  0  0  0  0  0  0  0
   13.8968    2.9706   16.7552 O   0  0  0  0  0  0  0  0  0  0  0  0
   15.4661    0.4481   15.7192 N   0  0  0  0  0  0  0  0  0  0  0  0
   14.5869   -0.6001   15.5254 C   0  0  0  0  0  0  0  0  0  0  0  0
   13.4030   -0.5805   14.6371 C   0  0  0  0  0  0  0  0  0  0  0  0
   13.3819    0.4518   13.8163 O   0  0  0  0  0  0  0  0  0  0  0  0
   12.4154   -1.3900   14.5196 N   0  0  0  0  0  0  0  0  0  0  0  0
   12.4759   -2.4599   15.3304 C   0  0  0  0  0  0  0  0  0  0  0  0
   11.5576   -3.3629   15.5713 N   0  0  0  0  0  0  0  0  0  0  0  0
   12.1253   -4.2183   16.4665 C   0  0  0  0  0  0  0  0  0  0  0  0
   13.3827   -3.8234   16.8229 C   0  0  0  0  0  0  0  0  0  0  0  0
   13.6009   -2.6800   16.1120 N   0  0  0  0  0  0  0  0  0  0  0  0
   14.6529   -1.7699   16.2002 C   0  0  0  0  0  0  0  0  0  0  0  0
   15.6947   -2.0083   17.0848 O   0  0  0  0  0  0  0  0  0  0  0  0
   16.3446    2.3524   17.3021 H   0  0  0  0  0  0  0  0  0  0  0  0
   17.6099    1.9501   16.1410 H   0  0  0  0  0  0  0  0  0  0  0  0
   16.8067    3.5238   16.0557 H   0  0  0  0  0  0  0  0  0  0  0  0
   16.8544    1.1041   13.6548 H   0  0  0  0  0  0  0  0  0  0  0  0
   16.7727    2.8630   13.7419 H   0  0  0  0  0  0  0  0  0  0  0  0
   14.5956    1.2464   13.0041 H   0  0  0  0  0  0  0  0  0  0  0  0
   13.4497    2.3628   14.8690 H   0  0  0  0  0  0  0  0  0  0  0  0
   14.5233    3.7360   14.9842 H   0  0  0  0  0  0  0  0  0  0  0  0
   13.0527    3.4515   16.6945 H   0  0  0  0  0  0  0  0  0  0  0  0
   16.1406    0.1914   16.4429 H   0  0  0  0  0  0  0  0  0  0  0  0
   12.4853    0.4577   13.4267 H   0  0  0  0  0  0  0  0  0  0  0  0
   11.5945   -5.0875   16.8046 H   0  0  0  0  0  0  0  0  0  0  0  0
   14.0893   -4.2368   17.5238 H   0  0  0  0  0  0  0  0  0  0  0  0
   15.7832   -2.9663   17.2225 H   0  0  0  0  0  0  0  0  0  0  0  0
  1  2  1  0
  2  3  1  0
  3  4  1  0
  2  5  1  0
  5  6  1  0
  2  7  1  0
  7  8  1  0
  8  9  1  0
  9 10  1  0
  9 11  2  0
 11 12  1  0
 12 13  2  0
 13 14  1  0
 14 15  2  0
 15 16  1  0
 16 17  1  0
 17 18  1  0
 17  8  2  0
 16 12  1  0
  1 19  1  0
  1 20  1  0
  1 21  1  0
  3 22  1  0
  3 23  1  0
  4 24  1  0
  5 25  1  0
  5 26  1  0
  6 27  1  0
  7 28  1  0
 10 29  1  0
 14 30  1  0
 15 31  1  0
 18 32  1  0
M  END
>  <Energy>  (232) 
114.55225601410207

>  <compound_id>  (232) 
3271

>  <target_id>  (232) 
1

>  <reference_id>  (232) 
76

>  <inspiration_ids>  (232) 
[106, 76]

>  <energy_score>  (232) 
-73.29668943027087

>  <distance_score>  (232) 
1.8889829089022228

>  <path>  (232) 
/opt/xchem-fragalysis-2/maxwin/BulkDock/SCRATCH/505734/C3271-P76/C3271-P76.minimised.mol

>  <scratch_subdir>  (232) 
/opt/xchem-fragalysis-2/maxwin/BulkDock/SCRATCH/505734/C3271-P76

>  <fragmenstein_runtime>  (232) 
1.1982676982879639

>  <fragmenstein_outcome>  (232) 
too moved

>  <fragmenstein_mode>  (232) 
expansion

>  <fragmenstein_error>  (232) 


$$$$
C3272-P106
     RDKit          3D

 31 32  0  0  0  0  0  0  0  0999 V2000
    8.0711   -0.5862   15.9617 O   0  0  0  0  0  0  0  0  0  0  0  0
    8.7734    0.4141   15.9364 C   0  0  0  0  0  0  0  0  0  0  0  0
    8.3705    1.5709   16.4952 O   0  0  0  0  0  0  0  0  0  0  0  0
   10.1246    0.5034   15.3021 C   0  0  0  0  0  0  0  0  0  0  0  0
   10.8446   -0.5895   15.8549 O   0  0  0  0  0  0  0  0  0  0  0  0
   11.9674   -0.9126   14.9720 N   0  0  0  0  0  0  0  0  0  0  0  0
   12.0286   -2.4022   15.0398 C   0  0  0  0  0  0  0  0  0  0  0  0
   13.1297   -2.7354   16.0610 C   0  0  0  0  0  0  0  0  0  0  0  0
   12.7140   -3.6672   16.9469 F   0  0  0  0  0  0  0  0  0  0  0  0
   13.3378   -1.4764   16.7497 N   0  0  0  0  0  0  0  0  0  0  0  0
   14.6293   -1.3164   17.3622 C   0  0  0  0  0  0  0  0  0  0  0  0
   14.8092   -2.2749   18.3796 O   0  0  0  0  0  0  0  0  0  0  0  0
   14.6863    0.0851   17.9682 C   0  0  0  0  0  0  0  0  0  0  0  0
   14.3440    1.1176   16.8977 C   0  0  0  0  0  0  0  0  0  0  0  0
   14.1847    2.3921   17.4728 O   0  0  0  0  0  0  0  0  0  0  0  0
   13.1100    0.8015   16.2189 N   0  0  0  0  0  0  0  0  0  0  0  0
   13.1910   -0.5274   15.6766 C   0  0  0  0  0  0  0  0  0  0  0  0
    7.4689    1.3857   16.8791 H   0  0  0  0  0  0  0  0  0  0  0  0
   10.6031    1.4502   15.5658 H   0  0  0  0  0  0  0  0  0  0  0  0
   10.0111    0.4274   14.2158 H   0  0  0  0  0  0  0  0  0  0  0  0
   11.0661   -2.8545   15.3045 H   0  0  0  0  0  0  0  0  0  0  0  0
   12.3112   -2.7724   14.0490 H   0  0  0  0  0  0  0  0  0  0  0  0
   14.0381   -3.0924   15.5659 H   0  0  0  0  0  0  0  0  0  0  0  0
   15.4518   -1.4417   16.6461 H   0  0  0  0  0  0  0  0  0  0  0  0
   13.9077   -2.5673   18.6114 H   0  0  0  0  0  0  0  0  0  0  0  0
   14.0069    0.1704   18.8268 H   0  0  0  0  0  0  0  0  0  0  0  0
   15.6823    0.2824   18.3844 H   0  0  0  0  0  0  0  0  0  0  0  0
   15.1704    1.1865   16.1797 H   0  0  0  0  0  0  0  0  0  0  0  0
   13.2985    2.3750   17.8790 H   0  0  0  0  0  0  0  0  0  0  0  0
   12.9996    1.4497   15.4462 H   0  0  0  0  0  0  0  0  0  0  0  0
   14.0151   -0.5848   14.9473 H   0  0  0  0  0  0  0  0  0  0  0  0
  1  2  2  0
  2  3  1  0
  2  4  1  0
  4  5  1  0
  5  6  1  0
  6  7  1  0
  7  8  1  0
  8  9  1  0
  8 10  1  0
 10 11  1  0
 11 12  1  0
 11 13  1  0
 13 14  1  0
 14 15  1  0
 14 16  1  0
 16 17  1  0
 17  6  1  0
 17 10  1  0
  3 18  1  0
  4 19  1  0
  4 20  1  0
  7 21  1  0
  7 22  1  0
  8 23  1  0
 11 24  1  0
 12 25  1  0
 13 26  1  0
 13 27  1  0
 14 28  1  0
 15 29  1  0
 16 30  1  0
 17 31  1  0
M  END
>  <Energy>  (233) 
-165.55036290258113

>  <compound_id>  (233) 
3272

>  <target_id>  (233) 
1

>  <reference_id>  (233) 
106

>  <inspiration_ids>  (233) 
[106, 80]

>  <energy_score>  (233) 
-64.83598814520302

>  <distance_score>  (233) 
0.5472345947591777

>  <path>  (233) 
/opt/xchem-fragalysis-2/maxwin/BulkDock/SCRATCH/505734/C3272-P106/C3272-P106.minimised.mol

>  <scratch_subdir>  (233) 
/opt/xchem-fragalysis-2/maxwin/BulkDock/SCRATCH/505734/C3272-P106

>  <fragmenstein_runtime>  (233) 
1.1075401306152344

>  <fragmenstein_outcome>  (233) 
acceptable

>  <fragmenstein_mode>  (233) 
expansion

>  <fragmenstein_error>  (233) 


$$$$
C3272-P80
     RDKit          3D

 31 32  0  0  0  0  0  0  0  0999 V2000
    8.8039    2.2815   16.1782 O   0  0  0  0  0  0  0  0  0  0  0  0
    9.0976    1.0990   16.1079 C   0  0  0  0  0  0  0  0  0  0  0  0
    8.4245    0.1636   16.8110 O   0  0  0  0  0  0  0  0  0  0  0  0
   10.1325    0.5041   15.1890 C   0  0  0  0  0  0  0  0  0  0  0  0
   10.8583   -0.4943   15.8904 O   0  0  0  0  0  0  0  0  0  0  0  0
   11.9350   -0.9622   15.0140 N   0  0  0  0  0  0  0  0  0  0  0  0
   11.9250   -2.4419   15.1722 C   0  0  0  0  0  0  0  0  0  0  0  0
   13.0694   -2.7663   16.1431 C   0  0  0  0  0  0  0  0  0  0  0  0
   12.6728   -3.6460   17.0888 F   0  0  0  0  0  0  0  0  0  0  0  0
   13.3457   -1.4827   16.7633 N   0  0  0  0  0  0  0  0  0  0  0  0
   14.6694   -1.3558   17.3160 C   0  0  0  0  0  0  0  0  0  0  0  0
   14.8541   -2.2845   18.3598 O   0  0  0  0  0  0  0  0  0  0  0  0
   14.7925    0.0592   17.8701 C   0  0  0  0  0  0  0  0  0  0  0  0
   14.4386    1.0650   16.7790 C   0  0  0  0  0  0  0  0  0  0  0  0
   14.3197    2.3477   17.3455 O   0  0  0  0  0  0  0  0  0  0  0  0
   13.1802    0.7693   16.1300 N   0  0  0  0  0  0  0  0  0  0  0  0
   13.2019   -0.5856   15.6445 C   0  0  0  0  0  0  0  0  0  0  0  0
    7.6381    0.6466   17.1984 H   0  0  0  0  0  0  0  0  0  0  0  0
   10.7964    1.3097   14.8575 H   0  0  0  0  0  0  0  0  0  0  0  0
    9.6229    0.0659   14.3275 H   0  0  0  0  0  0  0  0  0  0  0  0
   10.9612   -2.8214   15.5259 H   0  0  0  0  0  0  0  0  0  0  0  0
   12.1208   -2.8907   14.1934 H   0  0  0  0  0  0  0  0  0  0  0  0
   13.9420   -3.1700   15.6218 H   0  0  0  0  0  0  0  0  0  0  0  0
   15.4573   -1.5352   16.5730 H   0  0  0  0  0  0  0  0  0  0  0  0
   13.9553   -2.5131   18.6606 H   0  0  0  0  0  0  0  0  0  0  0  0
   14.1460    0.1930   18.7488 H   0  0  0  0  0  0  0  0  0  0  0  0
   15.8083    0.2399   18.2435 H   0  0  0  0  0  0  0  0  0  0  0  0
   15.2430    1.1084   16.0349 H   0  0  0  0  0  0  0  0  0  0  0  0
   13.7393    2.8321   16.7344 H   0  0  0  0  0  0  0  0  0  0  0  0
   12.4667    0.7679   16.8506 H   0  0  0  0  0  0  0  0  0  0  0  0
   13.9937   -0.7045   14.8886 H   0  0  0  0  0  0  0  0  0  0  0  0
  1  2  2  0
  2  3  1  0
  2  4  1  0
  4  5  1  0
  5  6  1  0
  6  7  1  0
  7  8  1  0
  8  9  1  0
  8 10  1  0
 10 11  1  0
 11 12  1  0
 11 13  1  0
 13 14  1  0
 14 15  1  0
 14 16  1  0
 16 17  1  0
 17  6  1  0
 17 10  1  0
  3 18  1  0
  4 19  1  0
  4 20  1  0
  7 21  1  0
  7 22  1  0
  8 23  1  0
 11 24  1  0
 12 25  1  0
 13 26  1  0
 13 27  1  0
 14 28  1  0
 15 29  1  0
 16 30  1  0
 17 31  1  0
M  END
>  <Energy>  (234) 
-168.16108212510602

>  <compound_id>  (234) 
3272

>  <target_id>  (234) 
1

>  <reference_id>  (234) 
80

>  <inspiration_ids>  (234) 
[106, 80]

>  <energy_score>  (234) 
-67.44670736772886

>  <distance_score>  (234) 
0.5553718591043354

>  <path>  (234) 
/opt/xchem-fragalysis-2/maxwin/BulkDock/SCRATCH/505734/C3272-P80/C3272-P80.minimised.mol

>  <scratch_subdir>  (234) 
/opt/xchem-fragalysis-2/maxwin/BulkDock/SCRATCH/505734/C3272-P80

>  <fragmenstein_runtime>  (234) 
1.1537768840789795

>  <fragmenstein_outcome>  (234) 
acceptable

>  <fragmenstein_mode>  (234) 
expansion

>  <fragmenstein_error>  (234) 


$$$$
C3275-P106
     RDKit          3D

 46 50  0  0  0  0  0  0  0  0999 V2000
   14.1595   -3.5046   19.3258 C   0  0  0  0  0  0  0  0  0  0  0  0
   13.6489   -3.9037   18.0204 N   0  0  0  0  0  0  0  0  0  0  0  0
   12.8868   -2.8068   17.4543 N   0  0  0  0  0  0  0  0  0  0  0  0
   13.6035   -2.3202   16.2877 C   0  0  0  0  0  0  0  0  0  0  0  0
   12.7301   -2.2632   14.9969 C   0  0  0  0  0  0  0  0  0  0  0  0
   12.1601   -0.8947   14.9405 N   0  0  0  0  0  0  0  0  0  0  0  0
   12.7261   -0.2440   16.0857 C   0  0  0  0  0  0  0  0  0  0  0  0
   13.0252    1.1029   15.7164 N   0  0  0  0  0  0  0  0  0  0  0  0
   13.5994    1.7779   16.8634 C   0  0  0  0  0  0  0  0  0  0  0  0
   13.9681    3.0692   16.4506 O   0  0  0  0  0  0  0  0  0  0  0  0
   14.8397    1.0605   17.3888 C   0  0  0  0  0  0  0  0  0  0  0  0
   14.5389   -0.4119   17.6192 C   0  0  0  0  0  0  0  0  0  0  0  0
   13.9488   -0.9282   16.3957 N   0  0  0  0  0  0  0  0  0  0  0  0
   14.8220   -3.0729   16.1762 N   0  0  0  0  0  0  0  0  0  0  0  0
   14.6129   -4.2418   16.9893 C   0  0  0  0  0  0  0  0  0  0  0  0
   16.0547   -5.1815   17.4697 S   0  0  0  0  0  0  0  0  0  0  0  0
   17.3259   -4.0802   17.7764 C   0  0  0  0  0  0  0  0  0  0  0  0
   17.9374   -3.4163   16.7750 C   0  0  0  0  0  0  0  0  0  0  0  0
   19.0497   -2.5266   17.0754 C   0  0  0  0  0  0  0  0  0  0  0  0
   19.5146   -2.3853   18.3307 C   0  0  0  0  0  0  0  0  0  0  0  0
   18.9086   -3.1176   19.3861 C   0  0  0  0  0  0  0  0  0  0  0  0
   19.1526   -3.1741   20.6770 N   0  0  0  0  0  0  0  0  0  0  0  0
   18.2648   -4.0644   21.2343 N   0  0  0  0  0  0  0  0  0  0  0  0
   17.5033   -4.5278   20.2689 C   0  0  0  0  0  0  0  0  0  0  0  0
   17.8389   -3.9442   19.0735 N   0  0  0  0  0  0  0  0  0  0  0  0
   14.9130   -2.7135   19.2763 H   0  0  0  0  0  0  0  0  0  0  0  0
   14.5838   -4.3669   19.8475 H   0  0  0  0  0  0  0  0  0  0  0  0
   13.3465   -3.1579   19.9724 H   0  0  0  0  0  0  0  0  0  0  0  0
   11.9944   -3.1801   17.1293 H   0  0  0  0  0  0  0  0  0  0  0  0
   13.3437   -2.3977   14.0984 H   0  0  0  0  0  0  0  0  0  0  0  0
   11.9361   -3.0174   14.9788 H   0  0  0  0  0  0  0  0  0  0  0  0
   12.5902   -0.4298   14.1426 H   0  0  0  0  0  0  0  0  0  0  0  0
   11.9924   -0.2968   16.8890 H   0  0  0  0  0  0  0  0  0  0  0  0
   12.1481    1.5614   15.4851 H   0  0  0  0  0  0  0  0  0  0  0  0
   12.8645    1.8896   17.6664 H   0  0  0  0  0  0  0  0  0  0  0  0
   14.3025    2.9334   15.5472 H   0  0  0  0  0  0  0  0  0  0  0  0
   15.6693    1.1706   16.6763 H   0  0  0  0  0  0  0  0  0  0  0  0
   15.1809    1.5326   18.3179 H   0  0  0  0  0  0  0  0  0  0  0  0
   13.8819   -0.5141   18.4868 H   0  0  0  0  0  0  0  0  0  0  0  0
   15.4828   -0.9091   17.8641 H   0  0  0  0  0  0  0  0  0  0  0  0
   15.5125   -2.5026   16.6370 H   0  0  0  0  0  0  0  0  0  0  0  0
   14.0762   -4.9378   16.3384 H   0  0  0  0  0  0  0  0  0  0  0  0
   17.6405   -3.5162   15.7334 H   0  0  0  0  0  0  0  0  0  0  0  0
   19.5001   -1.9805   16.2510 H   0  0  0  0  0  0  0  0  0  0  0  0
   20.3458   -1.7282   18.5621 H   0  0  0  0  0  0  0  0  0  0  0  0
   16.7262   -5.2688   20.3809 H   0  0  0  0  0  0  0  0  0  0  0  0
  1  2  1  0
  2  3  1  0
  3  4  1  0
  4  5  1  0
  5  6  1  0
  6  7  1  0
  7  8  1  0
  8  9  1  0
  9 10  1  0
  9 11  1  0
 11 12  1  0
 12 13  1  0
  4 14  1  0
 14 15  1  0
 15 16  1  0
 16 17  1  0
 17 18  2  0
 18 19  1  0
 19 20  2  0
 20 21  1  0
 21 22  2  0
 22 23  1  0
 23 24  2  0
 24 25  1  0
 15  2  1  0
 25 17  1  0
 13  4  1  0
 25 21  1  0
 13  7  1  0
  1 26  1  0
  1 27  1  0
  1 28  1  0
  3 29  1  0
  5 30  1  0
  5 31  1  0
  6 32  1  0
  7 33  1  0
  8 34  1  0
  9 35  1  0
 10 36  1  0
 11 37  1  0
 11 38  1  0
 12 39  1  0
 12 40  1  0
 14 41  1  0
 15 42  1  0
 18 43  1  0
 19 44  1  0
 20 45  1  0
 24 46  1  0
M  END
>  <Energy>  (235) 
-212.68464677142234

>  <compound_id>  (235) 
3275

>  <target_id>  (235) 
1

>  <reference_id>  (235) 
106

>  <inspiration_ids>  (235) 
[106, 86]

>  <energy_score>  (235) 
-72.25015242684013

>  <distance_score>  (235) 
1.2129995269443365

>  <path>  (235) 
/opt/xchem-fragalysis-2/maxwin/BulkDock/SCRATCH/505734/C3275-P106/C3275-P106.minimised.mol

>  <scratch_subdir>  (235) 
/opt/xchem-fragalysis-2/maxwin/BulkDock/SCRATCH/505734/C3275-P106

>  <fragmenstein_runtime>  (235) 
1.9021973609924316

>  <fragmenstein_outcome>  (235) 
too moved

>  <fragmenstein_mode>  (235) 
expansion

>  <fragmenstein_error>  (235) 


$$$$
C3275-P86
     RDKit          3D

 46 50  0  0  0  0  0  0  0  0999 V2000
   14.1181   -3.5738   19.3218 C   0  0  0  0  0  0  0  0  0  0  0  0
   13.5662   -3.9550   18.0270 N   0  0  0  0  0  0  0  0  0  0  0  0
   12.8464   -2.8253   17.4775 N   0  0  0  0  0  0  0  0  0  0  0  0
   13.5661   -2.3650   16.3020 C   0  0  0  0  0  0  0  0  0  0  0  0
   12.6742   -2.2850   15.0267 C   0  0  0  0  0  0  0  0  0  0  0  0
   12.0757   -0.9263   15.0315 N   0  0  0  0  0  0  0  0  0  0  0  0
   12.7100   -0.2787   16.1428 C   0  0  0  0  0  0  0  0  0  0  0  0
   13.0076    1.0670   15.7666 N   0  0  0  0  0  0  0  0  0  0  0  0
   13.6258    1.7243   16.9001 C   0  0  0  0  0  0  0  0  0  0  0  0
   13.9628    3.0293   16.5058 O   0  0  0  0  0  0  0  0  0  0  0  0
   14.8860    0.9991   17.3636 C   0  0  0  0  0  0  0  0  0  0  0  0
   14.5862   -0.4744   17.5980 C   0  0  0  0  0  0  0  0  0  0  0  0
   13.9372   -0.9786   16.3998 N   0  0  0  0  0  0  0  0  0  0  0  0
   14.7584   -3.1574   16.1813 N   0  0  0  0  0  0  0  0  0  0  0  0
   14.5000   -4.3290   16.9793 C   0  0  0  0  0  0  0  0  0  0  0  0
   15.8927   -5.3515   17.4449 S   0  0  0  0  0  0  0  0  0  0  0  0
   17.2303   -4.3058   17.6845 C   0  0  0  0  0  0  0  0  0  0  0  0
   17.8494   -3.7108   16.6446 C   0  0  0  0  0  0  0  0  0  0  0  0
   19.0034   -2.8571   16.8855 C   0  0  0  0  0  0  0  0  0  0  0  0
   19.4937   -2.6748   18.1256 C   0  0  0  0  0  0  0  0  0  0  0  0
   18.8758   -3.3302   19.2237 C   0  0  0  0  0  0  0  0  0  0  0  0
   19.1352   -3.3315   20.5128 N   0  0  0  0  0  0  0  0  0  0  0  0
   18.2256   -4.1624   21.1241 N   0  0  0  0  0  0  0  0  0  0  0  0
   17.4362   -4.6466   20.1919 C   0  0  0  0  0  0  0  0  0  0  0  0
   17.7719   -4.1314   18.9658 N   0  0  0  0  0  0  0  0  0  0  0  0
   14.9061   -2.8180   19.2533 H   0  0  0  0  0  0  0  0  0  0  0  0
   14.5101   -4.4523   19.8415 H   0  0  0  0  0  0  0  0  0  0  0  0
   13.3337   -3.1845   19.9797 H   0  0  0  0  0  0  0  0  0  0  0  0
   11.9339   -3.1537   17.1610 H   0  0  0  0  0  0  0  0  0  0  0  0
   13.2813   -2.3743   14.1179 H   0  0  0  0  0  0  0  0  0  0  0  0
   11.8970   -3.0558   14.9917 H   0  0  0  0  0  0  0  0  0  0  0  0
   12.4279   -0.4475   14.2041 H   0  0  0  0  0  0  0  0  0  0  0  0
   12.0148   -0.3150   16.9825 H   0  0  0  0  0  0  0  0  0  0  0  0
   12.1290    1.5341   15.5612 H   0  0  0  0  0  0  0  0  0  0  0  0
   12.9248    1.8149   17.7354 H   0  0  0  0  0  0  0  0  0  0  0  0
   14.3004    2.9173   15.5996 H   0  0  0  0  0  0  0  0  0  0  0  0
   15.6825    1.1105   16.6146 H   0  0  0  0  0  0  0  0  0  0  0  0
   15.2713    1.4629   18.2796 H   0  0  0  0  0  0  0  0  0  0  0  0
   13.9682   -0.5789   18.4941 H   0  0  0  0  0  0  0  0  0  0  0  0
   15.5365   -0.9800   17.7972 H   0  0  0  0  0  0  0  0  0  0  0  0
   15.4695   -2.6238   16.6543 H   0  0  0  0  0  0  0  0  0  0  0  0
   13.9232   -4.9842   16.3202 H   0  0  0  0  0  0  0  0  0  0  0  0
   17.5237   -3.8382   15.6146 H   0  0  0  0  0  0  0  0  0  0  0  0
   19.4624   -2.3709   16.0289 H   0  0  0  0  0  0  0  0  0  0  0  0
   20.3552   -2.0432   18.3128 H   0  0  0  0  0  0  0  0  0  0  0  0
   16.6382   -5.3564   20.3491 H   0  0  0  0  0  0  0  0  0  0  0  0
  1  2  1  0
  2  3  1  0
  3  4  1  0
  4  5  1  0
  5  6  1  0
  6  7  1  0
  7  8  1  0
  8  9  1  0
  9 10  1  0
  9 11  1  0
 11 12  1  0
 12 13  1  0
  4 14  1  0
 14 15  1  0
 15 16  1  0
 16 17  1  0
 17 18  2  0
 18 19  1  0
 19 20  2  0
 20 21  1  0
 21 22  2  0
 22 23  1  0
 23 24  2  0
 24 25  1  0
 15  2  1  0
 25 17  1  0
 13  4  1  0
 25 21  1  0
 13  7  1  0
  1 26  1  0
  1 27  1  0
  1 28  1  0
  3 29  1  0
  5 30  1  0
  5 31  1  0
  6 32  1  0
  7 33  1  0
  8 34  1  0
  9 35  1  0
 10 36  1  0
 11 37  1  0
 11 38  1  0
 12 39  1  0
 12 40  1  0
 14 41  1  0
 15 42  1  0
 18 43  1  0
 19 44  1  0
 20 45  1  0
 24 46  1  0
M  END
>  <Energy>  (236) 
-212.70326503977171

>  <compound_id>  (236) 
3275

>  <target_id>  (236) 
1

>  <reference_id>  (236) 
86

>  <inspiration_ids>  (236) 
[106, 86]

>  <energy_score>  (236) 
-72.26877069518991

>  <distance_score>  (236) 
1.1318733510098615

>  <path>  (236) 
/opt/xchem-fragalysis-2/maxwin/BulkDock/SCRATCH/505734/C3275-P86/C3275-P86.minimised.mol

>  <scratch_subdir>  (236) 
/opt/xchem-fragalysis-2/maxwin/BulkDock/SCRATCH/505734/C3275-P86

>  <fragmenstein_runtime>  (236) 
1.239694595336914

>  <fragmenstein_outcome>  (236) 
too moved

>  <fragmenstein_mode>  (236) 
expansion

>  <fragmenstein_error>  (236) 


$$$$
C3276-P106
     RDKit          3D

 37 39  0  0  0  0  0  0  0  0999 V2000
   13.4336   -4.0430   17.0139 C   0  0  0  0  0  0  0  0  0  0  0  0
   12.9806   -2.7993   16.3704 C   0  0  0  0  0  0  0  0  0  0  0  0
   12.0578   -2.6017   15.3680 C   0  0  0  0  0  0  0  0  0  0  0  0
   11.9766   -1.2836   15.0323 N   0  0  0  0  0  0  0  0  0  0  0  0
   12.8423   -0.6512   15.7931 C   0  0  0  0  0  0  0  0  0  0  0  0
   13.0932    0.6865   15.8471 N   0  0  0  0  0  0  0  0  0  0  0  0
   13.9319    1.0602   16.7494 C   0  0  0  0  0  0  0  0  0  0  0  0
   14.2077    2.3684   16.8859 O   0  0  0  0  0  0  0  0  0  0  0  0
   14.6497    0.2149   17.7232 C   0  0  0  0  0  0  0  0  0  0  0  0
   14.3428   -1.0962   17.6755 C   0  0  0  0  0  0  0  0  0  0  0  0
   14.8201   -2.0545   18.6114 O   0  0  0  0  0  0  0  0  0  0  0  0
   14.9719   -1.7227   19.9306 C   0  0  0  0  0  0  0  0  0  0  0  0
   14.8547   -0.5903   20.3914 O   0  0  0  0  0  0  0  0  0  0  0  0
   15.1944   -2.9056   20.8095 C   0  0  0  0  0  0  0  0  0  0  0  0
   16.3405   -4.0283   20.0895 S   0  0  0  0  0  0  0  0  0  0  0  0
   17.5261   -3.2923   19.6950 O   0  0  0  0  0  0  0  0  0  0  0  0
   15.6338   -4.8723   19.1431 O   0  0  0  0  0  0  0  0  0  0  0  0
   16.7995   -5.0656   21.4603 C   0  0  0  0  0  0  0  0  0  0  0  0
   17.8596   -4.6829   22.2871 C   0  0  0  0  0  0  0  0  0  0  0  0
   18.2210   -5.5006   23.3573 C   0  0  0  0  0  0  0  0  0  0  0  0
   17.5344   -6.6939   23.5887 C   0  0  0  0  0  0  0  0  0  0  0  0
   16.4887   -7.0791   22.7478 C   0  0  0  0  0  0  0  0  0  0  0  0
   16.1190   -6.2674   21.6758 C   0  0  0  0  0  0  0  0  0  0  0  0
   13.4646   -1.5404   16.6718 N   0  0  0  0  0  0  0  0  0  0  0  0
   14.5040   -4.1946   16.8489 H   0  0  0  0  0  0  0  0  0  0  0  0
   13.2232   -4.0340   18.0869 H   0  0  0  0  0  0  0  0  0  0  0  0
   12.9114   -4.9058   16.5926 H   0  0  0  0  0  0  0  0  0  0  0  0
   11.4520   -3.3412   14.8585 H   0  0  0  0  0  0  0  0  0  0  0  0
   14.7917    2.5861   17.6264 H   0  0  0  0  0  0  0  0  0  0  0  0
   15.3258    0.6582   18.4375 H   0  0  0  0  0  0  0  0  0  0  0  0
   15.6257   -2.5546   21.7519 H   0  0  0  0  0  0  0  0  0  0  0  0
   14.2485   -3.4179   20.9987 H   0  0  0  0  0  0  0  0  0  0  0  0
   18.4132   -3.7645   22.1037 H   0  0  0  0  0  0  0  0  0  0  0  0
   19.0457   -5.2151   24.0066 H   0  0  0  0  0  0  0  0  0  0  0  0
   17.8251   -7.3332   24.4195 H   0  0  0  0  0  0  0  0  0  0  0  0
   15.9713   -8.0197   22.9230 H   0  0  0  0  0  0  0  0  0  0  0  0
   15.3162   -6.5867   21.0153 H   0  0  0  0  0  0  0  0  0  0  0  0
  1  2  1  0
  2  3  2  0
  3  4  1  0
  4  5  2  0
  5  6  1  0
  6  7  2  0
  7  8  1  0
  7  9  1  0
  9 10  2  0
 10 11  1  0
 11 12  1  0
 12 13  2  0
 12 14  1  0
 14 15  1  0
 15 16  2  0
 15 17  2  0
 15 18  1  0
 18 19  2  0
 19 20  1  0
 20 21  2  0
 21 22  1  0
 22 23  2  0
 10 24  1  0
 24  2  1  0
 24  5  1  0
 23 18  1  0
  1 25  1  0
  1 26  1  0
  1 27  1  0
  3 28  1  0
  8 29  1  0
  9 30  1  0
 14 31  1  0
 14 32  1  0
 19 33  1  0
 20 34  1  0
 21 35  1  0
 22 36  1  0
 23 37  1  0
M  END
>  <Energy>  (237) 
4.6037433765530968

>  <compound_id>  (237) 
3276

>  <target_id>  (237) 
1

>  <reference_id>  (237) 
106

>  <inspiration_ids>  (237) 
[106, 93]

>  <energy_score>  (237) 
-58.465776411710145

>  <distance_score>  (237) 
1.276785406579156

>  <path>  (237) 
/opt/xchem-fragalysis-2/maxwin/BulkDock/SCRATCH/505734/C3276-P106/C3276-P106.minimised.mol

>  <scratch_subdir>  (237) 
/opt/xchem-fragalysis-2/maxwin/BulkDock/SCRATCH/505734/C3276-P106

>  <fragmenstein_runtime>  (237) 
1.4654035568237305

>  <fragmenstein_outcome>  (237) 
too moved

>  <fragmenstein_mode>  (237) 
expansion

>  <fragmenstein_error>  (237) 


$$$$
C3276-P93
     RDKit          3D

 37 39  0  0  0  0  0  0  0  0999 V2000
   13.5517   -4.1151   16.8598 C   0  0  0  0  0  0  0  0  0  0  0  0
   13.0169   -2.8500   16.3338 C   0  0  0  0  0  0  0  0  0  0  0  0
   11.9549   -2.6264   15.4870 C   0  0  0  0  0  0  0  0  0  0  0  0
   11.7737   -1.2935   15.2743 N   0  0  0  0  0  0  0  0  0  0  0  0
   12.7410   -0.6796   15.9194 C   0  0  0  0  0  0  0  0  0  0  0  0
   12.9517    0.6614   16.0304 N   0  0  0  0  0  0  0  0  0  0  0  0
   13.9376    1.0092   16.7813 C   0  0  0  0  0  0  0  0  0  0  0  0
   14.1870    2.3167   16.9671 O   0  0  0  0  0  0  0  0  0  0  0  0
   14.8620    0.1308   17.5247 C   0  0  0  0  0  0  0  0  0  0  0  0
   14.6008   -1.1880   17.4310 C   0  0  0  0  0  0  0  0  0  0  0  0
   15.3317   -2.1961   18.1213 O   0  0  0  0  0  0  0  0  0  0  0  0
   15.9978   -1.9663   19.2926 C   0  0  0  0  0  0  0  0  0  0  0  0
   16.0599   -0.8893   19.8770 O   0  0  0  0  0  0  0  0  0  0  0  0
   16.5751   -3.2134   19.8703 C   0  0  0  0  0  0  0  0  0  0  0  0
   17.5366   -4.0593   18.6644 S   0  0  0  0  0  0  0  0  0  0  0  0
   18.4953   -3.1303   18.0994 O   0  0  0  0  0  0  0  0  0  0  0  0
   16.6398   -4.8205   17.8149 O   0  0  0  0  0  0  0  0  0  0  0  0
   18.4521   -5.2366   19.6334 C   0  0  0  0  0  0  0  0  0  0  0  0
   19.6548   -4.8464   20.2295 C   0  0  0  0  0  0  0  0  0  0  0  0
   20.3745   -5.7713   20.9853 C   0  0  0  0  0  0  0  0  0  0  0  0
   19.8992   -7.0758   21.1321 C   0  0  0  0  0  0  0  0  0  0  0  0
   18.7071   -7.4639   20.5181 C   0  0  0  0  0  0  0  0  0  0  0  0
   17.9794   -6.5460   19.7613 C   0  0  0  0  0  0  0  0  0  0  0  0
   13.5396   -1.5991   16.6041 N   0  0  0  0  0  0  0  0  0  0  0  0
   12.8876   -4.9461   16.6028 H   0  0  0  0  0  0  0  0  0  0  0  0
   13.6310   -4.0986   17.9507 H   0  0  0  0  0  0  0  0  0  0  0  0
   14.5307   -4.3241   16.4225 H   0  0  0  0  0  0  0  0  0  0  0  0
   11.2988   -3.3575   15.0294 H   0  0  0  0  0  0  0  0  0  0  0  0
   14.9148    2.5100   17.5760 H   0  0  0  0  0  0  0  0  0  0  0  0
   15.6672    0.5589   18.1007 H   0  0  0  0  0  0  0  0  0  0  0  0
   17.2401   -2.9377   20.6942 H   0  0  0  0  0  0  0  0  0  0  0  0
   15.7803   -3.8662   20.2379 H   0  0  0  0  0  0  0  0  0  0  0  0
   20.0440   -3.8382   20.1041 H   0  0  0  0  0  0  0  0  0  0  0  0
   21.3134   -5.4813   21.4519 H   0  0  0  0  0  0  0  0  0  0  0  0
   20.4677   -7.7972   21.7151 H   0  0  0  0  0  0  0  0  0  0  0  0
   18.3523   -8.4874   20.6197 H   0  0  0  0  0  0  0  0  0  0  0  0
   17.0630   -6.8685   19.2711 H   0  0  0  0  0  0  0  0  0  0  0  0
  1  2  1  0
  2  3  2  0
  3  4  1  0
  4  5  2  0
  5  6  1  0
  6  7  2  0
  7  8  1  0
  7  9  1  0
  9 10  2  0
 10 11  1  0
 11 12  1  0
 12 13  2  0
 12 14  1  0
 14 15  1  0
 15 16  2  0
 15 17  2  0
 15 18  1  0
 18 19  2  0
 19 20  1  0
 20 21  2  0
 21 22  1  0
 22 23  2  0
 10 24  1  0
 24  2  1  0
 24  5  1  0
 23 18  1  0
  1 25  1  0
  1 26  1  0
  1 27  1  0
  3 28  1  0
  8 29  1  0
  9 30  1  0
 14 31  1  0
 14 32  1  0
 19 33  1  0
 20 34  1  0
 21 35  1  0
 22 36  1  0
 23 37  1  0
M  END
>  <Energy>  (238) 
3.7460648082636894

>  <compound_id>  (238) 
3276

>  <target_id>  (238) 
1

>  <reference_id>  (238) 
93

>  <inspiration_ids>  (238) 
[106, 93]

>  <energy_score>  (238) 
-59.32345497999937

>  <distance_score>  (238) 
1.183398066717406

>  <path>  (238) 
/opt/xchem-fragalysis-2/maxwin/BulkDock/SCRATCH/505734/C3276-P93/C3276-P93.minimised.mol

>  <scratch_subdir>  (238) 
/opt/xchem-fragalysis-2/maxwin/BulkDock/SCRATCH/505734/C3276-P93

>  <fragmenstein_runtime>  (238) 
1.5091090202331543

>  <fragmenstein_outcome>  (238) 
too moved

>  <fragmenstein_mode>  (238) 
expansion

>  <fragmenstein_error>  (238) 


$$$$
C3278-P106
     RDKit          3D

 23 24  0  0  0  0  0  0  0  0999 V2000
   13.1807   -3.9646   16.4267 O   0  0  0  0  0  0  0  0  0  0  0  0
   12.8675   -2.8894   15.9470 C   0  0  0  0  0  0  0  0  0  0  0  0
   11.7338   -2.5885   14.9798 C   0  0  0  0  0  0  0  0  0  0  0  0
   11.8502   -1.1323   14.7666 N   0  0  0  0  0  0  0  0  0  0  0  0
   12.5000   -0.6525   15.9495 C   0  0  0  0  0  0  0  0  0  0  0  0
   13.1487    0.5889   15.6928 N   0  0  0  0  0  0  0  0  0  0  0  0
   13.9340    0.9463   16.8540 C   0  0  0  0  0  0  0  0  0  0  0  0
   14.4201    2.2515   16.6417 O   0  0  0  0  0  0  0  0  0  0  0  0
   15.0922   -0.0297   17.0066 C   0  0  0  0  0  0  0  0  0  0  0  0
   14.5707   -1.4564   17.0709 C   0  0  0  0  0  0  0  0  0  0  0  0
   14.1972   -1.7884   18.3898 O   0  0  0  0  0  0  0  0  0  0  0  0
   13.4388   -1.6668   16.2233 N   0  0  0  0  0  0  0  0  0  0  0  0
   11.8646   -3.1260   14.0394 H   0  0  0  0  0  0  0  0  0  0  0  0
   10.7817   -2.8425   15.4483 H   0  0  0  0  0  0  0  0  0  0  0  0
   10.9421   -0.7175   14.5930 H   0  0  0  0  0  0  0  0  0  0  0  0
   11.7847   -0.5894   16.7724 H   0  0  0  0  0  0  0  0  0  0  0  0
   12.4432    1.3030   15.5500 H   0  0  0  0  0  0  0  0  0  0  0  0
   13.3311    0.9754   17.7673 H   0  0  0  0  0  0  0  0  0  0  0  0
   14.7481    2.2429   15.7259 H   0  0  0  0  0  0  0  0  0  0  0  0
   15.6861    0.2231   17.8929 H   0  0  0  0  0  0  0  0  0  0  0  0
   15.7644    0.0771   16.1441 H   0  0  0  0  0  0  0  0  0  0  0  0
   15.3625   -2.1562   16.7797 H   0  0  0  0  0  0  0  0  0  0  0  0
   13.9742   -2.7395   18.3553 H   0  0  0  0  0  0  0  0  0  0  0  0
  1  2  2  0
  2  3  1  0
  3  4  1  0
  4  5  1  0
  5  6  1  0
  6  7  1  0
  7  8  1  0
  7  9  1  0
  9 10  1  0
 10 11  1  0
 10 12  1  0
 12  2  1  0
 12  5  1  0
  3 13  1  0
  3 14  1  0
  4 15  1  0
  5 16  1  0
  6 17  1  0
  7 18  1  0
  8 19  1  0
  9 20  1  0
  9 21  1  0
 10 22  1  0
 11 23  1  0
M  END
>  <Energy>  (239) 
-210.96346348774443

>  <compound_id>  (239) 
3278

>  <target_id>  (239) 
1

>  <reference_id>  (239) 
106

>  <inspiration_ids>  (239) 
[106, 98]

>  <energy_score>  (239) 
-35.38296174329659

>  <distance_score>  (239) 
0.9993254954453678

>  <path>  (239) 
/opt/xchem-fragalysis-2/maxwin/BulkDock/SCRATCH/505734/C3278-P106/C3278-P106.minimised.mol

>  <scratch_subdir>  (239) 
/opt/xchem-fragalysis-2/maxwin/BulkDock/SCRATCH/505734/C3278-P106

>  <fragmenstein_runtime>  (239) 
0.5935835838317871

>  <fragmenstein_outcome>  (239) 
acceptable

>  <fragmenstein_mode>  (239) 
expansion

>  <fragmenstein_error>  (239) 


$$$$
C3278-P98
     RDKit          3D

 23 24  0  0  0  0  0  0  0  0999 V2000
   13.0131   -3.7707   16.4546 O   0  0  0  0  0  0  0  0  0  0  0  0
   12.6232   -2.7145   15.9879 C   0  0  0  0  0  0  0  0  0  0  0  0
   11.6905   -2.5121   14.8211 C   0  0  0  0  0  0  0  0  0  0  0  0
   11.9445   -1.1147   14.4432 N   0  0  0  0  0  0  0  0  0  0  0  0
   12.3254   -0.4581   15.6570 C   0  0  0  0  0  0  0  0  0  0  0  0
   13.2355    0.6026   15.3556 N   0  0  0  0  0  0  0  0  0  0  0  0
   13.6844    1.2037   16.5864 C   0  0  0  0  0  0  0  0  0  0  0  0
   14.4860    2.3164   16.2706 O   0  0  0  0  0  0  0  0  0  0  0  0
   14.4612    0.2257   17.4586 C   0  0  0  0  0  0  0  0  0  0  0  0
   14.2736   -1.2104   16.9855 C   0  0  0  0  0  0  0  0  0  0  0  0
   14.4917   -2.0732   18.0888 O   0  0  0  0  0  0  0  0  0  0  0  0
   12.9600   -1.4495   16.4508 N   0  0  0  0  0  0  0  0  0  0  0  0
   11.9370   -3.1799   13.9950 H   0  0  0  0  0  0  0  0  0  0  0  0
   10.6585   -2.6609   15.1483 H   0  0  0  0  0  0  0  0  0  0  0  0
   11.1090   -0.7214   14.0161 H   0  0  0  0  0  0  0  0  0  0  0  0
   11.4316   -0.1080   16.1867 H   0  0  0  0  0  0  0  0  0  0  0  0
   12.7502    1.2976   14.7981 H   0  0  0  0  0  0  0  0  0  0  0  0
   12.8372    1.6110   17.1450 H   0  0  0  0  0  0  0  0  0  0  0  0
   15.0783    2.0022   15.5649 H   0  0  0  0  0  0  0  0  0  0  0  0
   14.1130    0.3252   18.4953 H   0  0  0  0  0  0  0  0  0  0  0  0
   15.5327    0.4598   17.4908 H   0  0  0  0  0  0  0  0  0  0  0  0
   15.0106   -1.4584   16.2113 H   0  0  0  0  0  0  0  0  0  0  0  0
   14.1925   -2.9580   17.7915 H   0  0  0  0  0  0  0  0  0  0  0  0
  1  2  2  0
  2  3  1  0
  3  4  1  0
  4  5  1  0
  5  6  1  0
  6  7  1  0
  7  8  1  0
  7  9  1  0
  9 10  1  0
 10 11  1  0
 10 12  1  0
 12  2  1  0
 12  5  1  0
  3 13  1  0
  3 14  1  0
  4 15  1  0
  5 16  1  0
  6 17  1  0
  7 18  1  0
  8 19  1  0
  9 20  1  0
  9 21  1  0
 10 22  1  0
 11 23  1  0
M  END
>  <Energy>  (240) 
-205.67450053018985

>  <compound_id>  (240) 
3278

>  <target_id>  (240) 
1

>  <reference_id>  (240) 
98

>  <inspiration_ids>  (240) 
[106, 98]

>  <energy_score>  (240) 
-30.093998785741906

>  <distance_score>  (240) 
0.8672235287837196

>  <path>  (240) 
/opt/xchem-fragalysis-2/maxwin/BulkDock/SCRATCH/505734/C3278-P98/C3278-P98.minimised.mol

>  <scratch_subdir>  (240) 
/opt/xchem-fragalysis-2/maxwin/BulkDock/SCRATCH/505734/C3278-P98

>  <fragmenstein_runtime>  (240) 
0.6344273090362549

>  <fragmenstein_outcome>  (240) 
acceptable

>  <fragmenstein_mode>  (240) 
expansion

>  <fragmenstein_error>  (240) 


$$$$
C3279-P106
     RDKit          3D

 35 35  0  0  0  0  0  0  0  0999 V2000
   14.5566    2.7412   14.6761 C   0  0  0  0  0  0  0  0  0  0  0  0
   15.0136    3.1735   16.0806 C   0  0  0  0  0  0  0  0  0  0  0  0
   15.0957    4.7199   16.1108 C   0  0  0  0  0  0  0  0  0  0  0  0
   15.6186    5.2536   17.3502 N   0  0  0  0  0  0  0  0  0  0  0  0
   13.8500    5.3444   15.8950 O   0  0  0  0  0  0  0  0  0  0  0  0
   14.1033    2.6172   17.2005 C   0  0  0  0  0  0  0  0  0  0  0  0
   12.7857    3.1658   17.0756 O   0  0  0  0  0  0  0  0  0  0  0  0
   14.0746    1.1167   17.3025 C   0  0  0  0  0  0  0  0  0  0  0  0
   14.7283    0.3573   18.3074 C   0  0  0  0  0  0  0  0  0  0  0  0
   14.4245   -0.9659   18.1026 C   0  0  0  0  0  0  0  0  0  0  0  0
   13.6123   -1.0689   16.9919 N   0  0  0  0  0  0  0  0  0  0  0  0
   13.0237   -2.3530   16.5558 C   0  0  0  0  0  0  0  0  0  0  0  0
   14.1145   -3.4027   16.3429 C   0  0  0  0  0  0  0  0  0  0  0  0
   12.2051   -2.1924   15.3418 N   0  0  0  0  0  0  0  0  0  0  0  0
   10.7251   -1.4365   15.3676 S   0  0  0  0  0  0  0  0  0  0  0  0
   13.4242    0.1983   16.4929 C   0  0  0  0  0  0  0  0  0  0  0  0
   15.1500    3.2426   13.9034 H   0  0  0  0  0  0  0  0  0  0  0  0
   13.5031    2.9785   14.4964 H   0  0  0  0  0  0  0  0  0  0  0  0
   14.6978    1.6671   14.5266 H   0  0  0  0  0  0  0  0  0  0  0  0
   16.0276    2.7768   16.2303 H   0  0  0  0  0  0  0  0  0  0  0  0
   15.7632    5.0458   15.3049 H   0  0  0  0  0  0  0  0  0  0  0  0
   15.7714    6.2493   17.1874 H   0  0  0  0  0  0  0  0  0  0  0  0
   14.8569    5.2407   18.0267 H   0  0  0  0  0  0  0  0  0  0  0  0
   13.1686    4.7242   16.2319 H   0  0  0  0  0  0  0  0  0  0  0  0
   14.4830    2.9894   18.1607 H   0  0  0  0  0  0  0  0  0  0  0  0
   12.2760    2.8602   17.8538 H   0  0  0  0  0  0  0  0  0  0  0  0
   15.3396    0.7399   19.1156 H   0  0  0  0  0  0  0  0  0  0  0  0
   14.7051   -1.8374   18.6794 H   0  0  0  0  0  0  0  0  0  0  0  0
   12.4001   -2.6959   17.3852 H   0  0  0  0  0  0  0  0  0  0  0  0
   13.6672   -4.3720   16.1083 H   0  0  0  0  0  0  0  0  0  0  0  0
   14.7150   -3.5610   17.2447 H   0  0  0  0  0  0  0  0  0  0  0  0
   14.8037   -3.1086   15.5444 H   0  0  0  0  0  0  0  0  0  0  0  0
   12.1138   -3.1008   14.8870 H   0  0  0  0  0  0  0  0  0  0  0  0
   10.3976   -1.5124   14.0580 H   0  0  0  0  0  0  0  0  0  0  0  0
   12.8368    0.3758   15.6032 H   0  0  0  0  0  0  0  0  0  0  0  0
  1  2  1  0
  2  3  1  0
  3  4  1  0
  3  5  1  0
  2  6  1  0
  6  7  1  0
  6  8  1  0
  8  9  1  0
  9 10  2  0
 10 11  1  0
 11 12  1  0
 12 13  1  0
 12 14  1  0
 14 15  1  0
 11 16  1  0
 16  8  2  0
  1 17  1  0
  1 18  1  0
  1 19  1  0
  2 20  1  0
  3 21  1  0
  4 22  1  0
  4 23  1  0
  5 24  1  0
  6 25  1  0
  7 26  1  0
  9 27  1  0
 10 28  1  0
 12 29  1  0
 13 30  1  0
 13 31  1  0
 13 32  1  0
 14 33  1  0
 15 34  1  0
 16 35  1  0
M  END
>  <Energy>  (241) 
-4.4975107335296727

>  <compound_id>  (241) 
3279

>  <target_id>  (241) 
1

>  <reference_id>  (241) 
106

>  <inspiration_ids>  (241) 
[106, 103]

>  <energy_score>  (241) 
-40.2552420037965

>  <distance_score>  (241) 
0.9504006475196014

>  <path>  (241) 
/opt/xchem-fragalysis-2/maxwin/BulkDock/SCRATCH/505734/C3279-P106/C3279-P106.minimised.mol

>  <scratch_subdir>  (241) 
/opt/xchem-fragalysis-2/maxwin/BulkDock/SCRATCH/505734/C3279-P106

>  <fragmenstein_runtime>  (241) 
1.1022758483886719

>  <fragmenstein_outcome>  (241) 
acceptable

>  <fragmenstein_mode>  (241) 
expansion

>  <fragmenstein_error>  (241) 


$$$$
C3279-P103
     RDKit          3D

 35 35  0  0  0  0  0  0  0  0999 V2000
   14.6497    2.7422   14.7042 C   0  0  0  0  0  0  0  0  0  0  0  0
   15.0463    3.1890   16.1229 C   0  0  0  0  0  0  0  0  0  0  0  0
   15.1077    4.7357   16.1498 C   0  0  0  0  0  0  0  0  0  0  0  0
   15.5707    5.2780   17.4090 N   0  0  0  0  0  0  0  0  0  0  0  0
   13.8651    5.3440   15.8791 O   0  0  0  0  0  0  0  0  0  0  0  0
   14.0985    2.6227   17.2064 C   0  0  0  0  0  0  0  0  0  0  0  0
   12.7823    3.1554   17.0220 O   0  0  0  0  0  0  0  0  0  0  0  0
   14.0889    1.1206   17.2925 C   0  0  0  0  0  0  0  0  0  0  0  0
   14.8176    0.3528   18.2358 C   0  0  0  0  0  0  0  0  0  0  0  0
   14.5104   -0.9697   18.0310 C   0  0  0  0  0  0  0  0  0  0  0  0
   13.6275   -1.0646   16.9758 N   0  0  0  0  0  0  0  0  0  0  0  0
   13.0061   -2.3420   16.5687 C   0  0  0  0  0  0  0  0  0  0  0  0
   14.0466   -3.4450   16.3898 C   0  0  0  0  0  0  0  0  0  0  0  0
   12.2193   -2.1945   15.3376 N   0  0  0  0  0  0  0  0  0  0  0  0
   10.7290   -1.4702   15.3131 S   0  0  0  0  0  0  0  0  0  0  0  0
   13.3885    0.2098   16.5166 C   0  0  0  0  0  0  0  0  0  0  0  0
   15.2805    3.2314   13.9537 H   0  0  0  0  0  0  0  0  0  0  0  0
   13.6069    2.9838   14.4747 H   0  0  0  0  0  0  0  0  0  0  0  0
   14.7883    1.6649   14.5742 H   0  0  0  0  0  0  0  0  0  0  0  0
   16.0585    2.8058   16.3143 H   0  0  0  0  0  0  0  0  0  0  0  0
   15.8049    5.0669   15.3716 H   0  0  0  0  0  0  0  0  0  0  0  0
   15.7256    6.2739   17.2488 H   0  0  0  0  0  0  0  0  0  0  0  0
   14.7788    5.2645   18.0499 H   0  0  0  0  0  0  0  0  0  0  0  0
   13.1769    4.7196   16.1933 H   0  0  0  0  0  0  0  0  0  0  0  0
   14.4327    2.9942   18.1835 H   0  0  0  0  0  0  0  0  0  0  0  0
   12.2424    2.8658   17.7862 H   0  0  0  0  0  0  0  0  0  0  0  0
   15.4806    0.7285   19.0059 H   0  0  0  0  0  0  0  0  0  0  0  0
   14.8374   -1.8448   18.5770 H   0  0  0  0  0  0  0  0  0  0  0  0
   12.3613   -2.6387   17.3976 H   0  0  0  0  0  0  0  0  0  0  0  0
   13.5563   -4.3867   16.1298 H   0  0  0  0  0  0  0  0  0  0  0  0
   14.5989   -3.6416   17.3144 H   0  0  0  0  0  0  0  0  0  0  0  0
   14.7820   -3.1847   15.6214 H   0  0  0  0  0  0  0  0  0  0  0  0
   12.8243   -1.8321   14.5993 H   0  0  0  0  0  0  0  0  0  0  0  0
   10.3330   -1.7753   14.0569 H   0  0  0  0  0  0  0  0  0  0  0  0
   12.7298    0.4104   15.6841 H   0  0  0  0  0  0  0  0  0  0  0  0
  1  2  1  0
  2  3  1  0
  3  4  1  0
  3  5  1  0
  2  6  1  0
  6  7  1  0
  6  8  1  0
  8  9  1  0
  9 10  2  0
 10 11  1  0
 11 12  1  0
 12 13  1  0
 12 14  1  0
 14 15  1  0
 11 16  1  0
 16  8  2  0
  1 17  1  0
  1 18  1  0
  1 19  1  0
  2 20  1  0
  3 21  1  0
  4 22  1  0
  4 23  1  0
  5 24  1  0
  6 25  1  0
  7 26  1  0
  9 27  1  0
 10 28  1  0
 12 29  1  0
 13 30  1  0
 13 31  1  0
 13 32  1  0
 14 33  1  0
 15 34  1  0
 16 35  1  0
M  END
>  <Energy>  (242) 
-6.5313628837366

>  <compound_id>  (242) 
3279

>  <target_id>  (242) 
1

>  <reference_id>  (242) 
103

>  <inspiration_ids>  (242) 
[106, 103]

>  <energy_score>  (242) 
-42.28909415400426

>  <distance_score>  (242) 
0.9330025456718788

>  <path>  (242) 
/opt/xchem-fragalysis-2/maxwin/BulkDock/SCRATCH/505734/C3279-P103/C3279-P103.minimised.mol

>  <scratch_subdir>  (242) 
/opt/xchem-fragalysis-2/maxwin/BulkDock/SCRATCH/505734/C3279-P103

>  <fragmenstein_runtime>  (242) 
1.2117159366607666

>  <fragmenstein_outcome>  (242) 
acceptable

>  <fragmenstein_mode>  (242) 
expansion

>  <fragmenstein_error>  (242) 


$$$$
C3282-P106
     RDKit          3D

 22 24  0  0  0  0  0  0  0  0999 V2000
   13.4552   -4.2009   16.7045 N   0  0  0  0  0  0  0  0  0  0  0  0
   12.9215   -2.9750   16.4004 C   0  0  0  0  0  0  0  0  0  0  0  0
   11.8077   -2.5686   15.6947 C   0  0  0  0  0  0  0  0  0  0  0  0
   10.9160   -3.4165   15.1810 O   0  0  0  0  0  0  0  0  0  0  0  0
   11.7112   -1.2087   15.5967 N   0  0  0  0  0  0  0  0  0  0  0  0
   12.7504   -0.7529   16.2503 C   0  0  0  0  0  0  0  0  0  0  0  0
   13.1338    0.5234   16.5047 N   0  0  0  0  0  0  0  0  0  0  0  0
   14.1497    0.7858   17.3891 C   0  0  0  0  0  0  0  0  0  0  0  0
   14.5895    1.9313   17.8415 N   0  0  0  0  0  0  0  0  0  0  0  0
   15.6047    1.6030   18.7391 C   0  0  0  0  0  0  0  0  0  0  0  0
   15.8454    0.2917   18.8849 C   0  0  0  0  0  0  0  0  0  0  0  0
   14.9116   -0.3312   18.0188 C   0  0  0  0  0  0  0  0  0  0  0  0
   14.5605   -1.5844   17.7209 C   0  0  0  0  0  0  0  0  0  0  0  0
   15.1608   -2.6616   18.3510 O   0  0  0  0  0  0  0  0  0  0  0  0
   13.4934   -1.7887   16.8256 N   0  0  0  0  0  0  0  0  0  0  0  0
   14.4478   -4.2946   16.4592 H   0  0  0  0  0  0  0  0  0  0  0  0
   12.9886   -5.0084   16.2855 H   0  0  0  0  0  0  0  0  0  0  0  0
   10.9714   -4.2926   15.5980 H   0  0  0  0  0  0  0  0  0  0  0  0
   12.6069    1.3089   16.1443 H   0  0  0  0  0  0  0  0  0  0  0  0
   16.1301    2.3946   19.2600 H   0  0  0  0  0  0  0  0  0  0  0  0
   16.5672   -0.1873   19.5219 H   0  0  0  0  0  0  0  0  0  0  0  0
   14.5245   -3.4058   18.2923 H   0  0  0  0  0  0  0  0  0  0  0  0
  1  2  1  0
  2  3  2  0
  3  4  1  0
  3  5  1  0
  5  6  2  0
  6  7  1  0
  7  8  1  0
  8  9  2  0
  9 10  1  0
 10 11  2  0
 11 12  1  0
 12 13  2  0
 13 14  1  0
 13 15  1  0
 15  2  1  0
 15  6  1  0
 12  8  1  0
  1 16  1  0
  1 17  1  0
  4 18  1  0
  7 19  1  0
 10 20  1  0
 11 21  1  0
 14 22  1  0
M  END
>  <Energy>  (243) 
36.105799039361173

>  <compound_id>  (243) 
3282

>  <target_id>  (243) 
1

>  <reference_id>  (243) 
106

>  <inspiration_ids>  (243) 
[106, 117]

>  <energy_score>  (243) 
-43.51538615240955

>  <distance_score>  (243) 
1.0461116338164826

>  <path>  (243) 
/opt/xchem-fragalysis-2/maxwin/BulkDock/SCRATCH/505734/C3282-P106/C3282-P106.minimised.mol

>  <scratch_subdir>  (243) 
/opt/xchem-fragalysis-2/maxwin/BulkDock/SCRATCH/505734/C3282-P106

>  <fragmenstein_runtime>  (243) 
0.8605165481567383

>  <fragmenstein_outcome>  (243) 
too moved

>  <fragmenstein_mode>  (243) 
expansion

>  <fragmenstein_error>  (243) 


$$$$
C3282-P117
     RDKit          3D

 22 24  0  0  0  0  0  0  0  0999 V2000
   13.4648   -4.2181   16.6577 N   0  0  0  0  0  0  0  0  0  0  0  0
   12.9264   -2.9924   16.3621 C   0  0  0  0  0  0  0  0  0  0  0  0
   11.8087   -2.5870   15.6623 C   0  0  0  0  0  0  0  0  0  0  0  0
   10.9182   -3.4356   15.1478 O   0  0  0  0  0  0  0  0  0  0  0  0
   11.7091   -1.2273   15.5674 N   0  0  0  0  0  0  0  0  0  0  0  0
   12.7503   -0.7708   16.2170 C   0  0  0  0  0  0  0  0  0  0  0  0
   13.1311    0.5060   16.4714 N   0  0  0  0  0  0  0  0  0  0  0  0
   14.1445    0.7702   17.3576 C   0  0  0  0  0  0  0  0  0  0  0  0
   14.5769    1.9169   17.8136 N   0  0  0  0  0  0  0  0  0  0  0  0
   15.5919    1.5911   18.7129 C   0  0  0  0  0  0  0  0  0  0  0  0
   15.8393    0.2805   18.8550 C   0  0  0  0  0  0  0  0  0  0  0  0
   14.9104   -0.3450   17.9854 C   0  0  0  0  0  0  0  0  0  0  0  0
   14.5650   -1.5991   17.6834 C   0  0  0  0  0  0  0  0  0  0  0  0
   15.1699   -2.6751   18.3110 O   0  0  0  0  0  0  0  0  0  0  0  0
   13.4973   -1.8057   16.7888 N   0  0  0  0  0  0  0  0  0  0  0  0
   14.4543   -4.3088   16.3977 H   0  0  0  0  0  0  0  0  0  0  0  0
   12.9991   -5.0260   16.2352 H   0  0  0  0  0  0  0  0  0  0  0  0
   10.9722   -4.3117   15.5659 H   0  0  0  0  0  0  0  0  0  0  0  0
   12.6084    1.2897   16.1022 H   0  0  0  0  0  0  0  0  0  0  0  0
   16.1113    2.3838   19.2381 H   0  0  0  0  0  0  0  0  0  0  0  0
   16.5618   -0.1964   19.4928 H   0  0  0  0  0  0  0  0  0  0  0  0
   14.5427   -3.4256   18.2405 H   0  0  0  0  0  0  0  0  0  0  0  0
  1  2  1  0
  2  3  2  0
  3  4  1  0
  3  5  1  0
  5  6  2  0
  6  7  1  0
  7  8  1  0
  8  9  2  0
  9 10  1  0
 10 11  2  0
 11 12  1  0
 12 13  2  0
 13 14  1  0
 13 15  1  0
 15  2  1  0
 15  6  1  0
 12  8  1  0
  1 16  1  0
  1 17  1  0
  4 18  1  0
  7 19  1  0
 10 20  1  0
 11 21  1  0
 14 22  1  0
M  END
>  <Energy>  (244) 
36.154172760477884

>  <compound_id>  (244) 
3282

>  <target_id>  (244) 
1

>  <reference_id>  (244) 
117

>  <inspiration_ids>  (244) 
[106, 117]

>  <energy_score>  (244) 
-43.46701243129244

>  <distance_score>  (244) 
1.0407195571911259

>  <path>  (244) 
/opt/xchem-fragalysis-2/maxwin/BulkDock/SCRATCH/505734/C3282-P117/C3282-P117.minimised.mol

>  <scratch_subdir>  (244) 
/opt/xchem-fragalysis-2/maxwin/BulkDock/SCRATCH/505734/C3282-P117

>  <fragmenstein_runtime>  (244) 
0.8855900764465332

>  <fragmenstein_outcome>  (244) 
too moved

>  <fragmenstein_mode>  (244) 
expansion

>  <fragmenstein_error>  (244) 


$$$$
C3284-P106
     RDKit          3D

 40 43  0  0  0  0  0  0  0  0999 V2000
   15.1869    5.0798   11.8852 N   0  0  0  0  0  0  0  0  0  0  0  0
   14.5852    4.4810   13.0706 C   0  0  0  0  0  0  0  0  0  0  0  0
   14.6578    2.9788   13.0326 C   0  0  0  0  0  0  0  0  0  0  0  0
   13.9379    2.2904   12.0606 C   0  0  0  0  0  0  0  0  0  0  0  0
   14.0335    0.9026   11.9437 C   0  0  0  0  0  0  0  0  0  0  0  0
   14.8242    0.1732   12.8454 C   0  0  0  0  0  0  0  0  0  0  0  0
   15.1277   -1.2059   12.9891 C   0  0  0  0  0  0  0  0  0  0  0  0
   15.9466   -1.3386   14.0854 C   0  0  0  0  0  0  0  0  0  0  0  0
   16.1208   -0.0918   14.6348 N   0  0  0  0  0  0  0  0  0  0  0  0
   16.7709    0.1512   15.9296 C   0  0  0  0  0  0  0  0  0  0  0  0
   15.8572    0.6216   17.0176 N   0  0  0  0  0  0  0  0  0  0  0  0
   14.5535    0.0884   17.0138 C   0  0  0  0  0  0  0  0  0  0  0  0
   13.3896    0.9779   16.6626 C   0  0  0  0  0  0  0  0  0  0  0  0
   13.6356    2.2682   16.9788 O   0  0  0  0  0  0  0  0  0  0  0  0
   12.2503    0.6453   16.1630 N   0  0  0  0  0  0  0  0  0  0  0  0
   12.0726   -0.6969   15.9986 C   0  0  0  0  0  0  0  0  0  0  0  0
   11.0360   -1.3305   15.4906 N   0  0  0  0  0  0  0  0  0  0  0  0
   11.3698   -2.6598   15.5014 C   0  0  0  0  0  0  0  0  0  0  0  0
   12.5481   -2.8660   16.1734 C   0  0  0  0  0  0  0  0  0  0  0  0
   13.0157   -1.6125   16.4693 N   0  0  0  0  0  0  0  0  0  0  0  0
   14.2340   -1.2213   17.0254 C   0  0  0  0  0  0  0  0  0  0  0  0
   15.1473   -2.1869   17.4209 O   0  0  0  0  0  0  0  0  0  0  0  0
   15.5008    0.8634   13.8524 C   0  0  0  0  0  0  0  0  0  0  0  0
   15.4505    2.2658   13.9486 C   0  0  0  0  0  0  0  0  0  0  0  0
   15.2439    6.0877   12.0108 H   0  0  0  0  0  0  0  0  0  0  0  0
   16.1430    4.7406   11.7937 H   0  0  0  0  0  0  0  0  0  0  0  0
   13.5372    4.7920   13.1512 H   0  0  0  0  0  0  0  0  0  0  0  0
   15.0960    4.8619   13.9626 H   0  0  0  0  0  0  0  0  0  0  0  0
   13.3288    2.8392   11.3449 H   0  0  0  0  0  0  0  0  0  0  0  0
   13.5020    0.3931   11.1534 H   0  0  0  0  0  0  0  0  0  0  0  0
   14.7711   -2.0174   12.3665 H   0  0  0  0  0  0  0  0  0  0  0  0
   16.3692   -2.2267   14.5391 H   0  0  0  0  0  0  0  0  0  0  0  0
   17.2633   -0.7768   16.2402 H   0  0  0  0  0  0  0  0  0  0  0  0
   17.5526    0.8999   15.7584 H   0  0  0  0  0  0  0  0  0  0  0  0
   15.7813    1.6283   16.8602 H   0  0  0  0  0  0  0  0  0  0  0  0
   14.2219    2.3478   17.7467 H   0  0  0  0  0  0  0  0  0  0  0  0
   10.7277   -3.4050   15.0501 H   0  0  0  0  0  0  0  0  0  0  0  0
   13.1080   -3.7607   16.4093 H   0  0  0  0  0  0  0  0  0  0  0  0
   15.8739   -1.7121   17.8658 H   0  0  0  0  0  0  0  0  0  0  0  0
   16.0045    2.7951   14.7160 H   0  0  0  0  0  0  0  0  0  0  0  0
  1  2  1  0
  2  3  1  0
  3  4  2  0
  4  5  1  0
  5  6  2  0
  6  7  1  0
  7  8  2  0
  8  9  1  0
  9 10  1  0
 10 11  1  0
 11 12  1  0
 12 13  1  0
 13 14  1  0
 13 15  2  0
 15 16  1  0
 16 17  2  0
 17 18  1  0
 18 19  2  0
 19 20  1  0
 20 21  1  0
 21 22  1  0
  9 23  1  0
 23 24  2  0
 24  3  1  0
 23  6  1  0
 21 12  2  0
 20 16  1  0
  1 25  1  0
  1 26  1  0
  2 27  1  0
  2 28  1  0
  4 29  1  0
  5 30  1  0
  7 31  1  0
  8 32  1  0
 10 33  1  0
 10 34  1  0
 11 35  1  0
 14 36  1  0
 18 37  1  0
 19 38  1  0
 22 39  1  0
 24 40  1  0
M  END
>  <Energy>  (245) 
86.205125297031088

>  <compound_id>  (245) 
3284

>  <target_id>  (245) 
1

>  <reference_id>  (245) 
106

>  <inspiration_ids>  (245) 
[106, 120]

>  <energy_score>  (245) 
-50.71527660173405

>  <distance_score>  (245) 
1.3956789073075555

>  <path>  (245) 
/opt/xchem-fragalysis-2/maxwin/BulkDock/SCRATCH/505734/C3284-P106/C3284-P106.minimised.mol

>  <scratch_subdir>  (245) 
/opt/xchem-fragalysis-2/maxwin/BulkDock/SCRATCH/505734/C3284-P106

>  <fragmenstein_runtime>  (245) 
4.170162200927734

>  <fragmenstein_outcome>  (245) 
too moved

>  <fragmenstein_mode>  (245) 
expansion

>  <fragmenstein_error>  (245) 


$$$$
C3284-P120
     RDKit          3D

 40 43  0  0  0  0  0  0  0  0999 V2000
   15.2553    5.1382   11.9241 N   0  0  0  0  0  0  0  0  0  0  0  0
   14.6755    4.5453   13.1232 C   0  0  0  0  0  0  0  0  0  0  0  0
   14.6825    3.0426   13.0594 C   0  0  0  0  0  0  0  0  0  0  0  0
   13.8966    2.4043   12.1051 C   0  0  0  0  0  0  0  0  0  0  0  0
   13.9309    1.0172   11.9592 C   0  0  0  0  0  0  0  0  0  0  0  0
   14.7263    0.2377   12.8143 C   0  0  0  0  0  0  0  0  0  0  0  0
   14.9823   -1.1548   12.9188 C   0  0  0  0  0  0  0  0  0  0  0  0
   15.8357   -1.3421   13.9807 C   0  0  0  0  0  0  0  0  0  0  0  0
   16.0752   -0.1151   14.5498 N   0  0  0  0  0  0  0  0  0  0  0  0
   16.7663    0.0764   15.8322 C   0  0  0  0  0  0  0  0  0  0  0  0
   15.8924    0.5464   16.9544 N   0  0  0  0  0  0  0  0  0  0  0  0
   14.5760    0.0459   16.9702 C   0  0  0  0  0  0  0  0  0  0  0  0
   13.4274    0.9620   16.6366 C   0  0  0  0  0  0  0  0  0  0  0  0
   13.6951    2.2438   16.9680 O   0  0  0  0  0  0  0  0  0  0  0  0
   12.2796    0.6549   16.1399 N   0  0  0  0  0  0  0  0  0  0  0  0
   12.0728   -0.6821   15.9688 C   0  0  0  0  0  0  0  0  0  0  0  0
   11.0196   -1.2918   15.4658 N   0  0  0  0  0  0  0  0  0  0  0  0
   11.3184   -2.6289   15.4804 C   0  0  0  0  0  0  0  0  0  0  0  0
   12.4969   -2.8617   16.1437 C   0  0  0  0  0  0  0  0  0  0  0  0
   12.9972   -1.6192   16.4335 N   0  0  0  0  0  0  0  0  0  0  0  0
   14.2286   -1.2569   16.9805 C   0  0  0  0  0  0  0  0  0  0  0  0
   15.1254   -2.2439   17.3630 O   0  0  0  0  0  0  0  0  0  0  0  0
   15.4677    0.8795   13.8077 C   0  0  0  0  0  0  0  0  0  0  0  0
   15.4791    2.2804   13.9313 C   0  0  0  0  0  0  0  0  0  0  0  0
   15.3551    6.1415   12.0601 H   0  0  0  0  0  0  0  0  0  0  0  0
   16.1938    4.7650   11.7915 H   0  0  0  0  0  0  0  0  0  0  0  0
   13.6458    4.8987   13.2502 H   0  0  0  0  0  0  0  0  0  0  0  0
   15.2366    4.8894   13.9998 H   0  0  0  0  0  0  0  0  0  0  0  0
   13.2845    2.9922   11.4238 H   0  0  0  0  0  0  0  0  0  0  0  0
   13.3475    0.5513   11.1793 H   0  0  0  0  0  0  0  0  0  0  0  0
   14.5738   -1.9382   12.2924 H   0  0  0  0  0  0  0  0  0  0  0  0
   16.2431   -2.2545   14.3981 H   0  0  0  0  0  0  0  0  0  0  0  0
   17.2369   -0.8738   16.1074 H   0  0  0  0  0  0  0  0  0  0  0  0
   17.5657    0.8056   15.6593 H   0  0  0  0  0  0  0  0  0  0  0  0
   15.8411    1.5578   16.8190 H   0  0  0  0  0  0  0  0  0  0  0  0
   14.3073    2.3083   17.7166 H   0  0  0  0  0  0  0  0  0  0  0  0
   10.6538   -3.3583   15.0360 H   0  0  0  0  0  0  0  0  0  0  0  0
   13.0358   -3.7685   16.3771 H   0  0  0  0  0  0  0  0  0  0  0  0
   15.8731   -1.7819   17.7882 H   0  0  0  0  0  0  0  0  0  0  0  0
   16.0844    2.7719   14.6851 H   0  0  0  0  0  0  0  0  0  0  0  0
  1  2  1  0
  2  3  1  0
  3  4  2  0
  4  5  1  0
  5  6  2  0
  6  7  1  0
  7  8  2  0
  8  9  1  0
  9 10  1  0
 10 11  1  0
 11 12  1  0
 12 13  1  0
 13 14  1  0
 13 15  2  0
 15 16  1  0
 16 17  2  0
 17 18  1  0
 18 19  2  0
 19 20  1  0
 20 21  1  0
 21 22  1  0
  9 23  1  0
 23 24  2  0
 24  3  1  0
 23  6  1  0
 21 12  2  0
 20 16  1  0
  1 25  1  0
  1 26  1  0
  2 27  1  0
  2 28  1  0
  4 29  1  0
  5 30  1  0
  7 31  1  0
  8 32  1  0
 10 33  1  0
 10 34  1  0
 11 35  1  0
 14 36  1  0
 18 37  1  0
 19 38  1  0
 22 39  1  0
 24 40  1  0
M  END
>  <Energy>  (246) 
86.561782982363468

>  <compound_id>  (246) 
3284

>  <target_id>  (246) 
1

>  <reference_id>  (246) 
120

>  <inspiration_ids>  (246) 
[106, 120]

>  <energy_score>  (246) 
-50.35861891639945

>  <distance_score>  (246) 
1.3862410075575387

>  <path>  (246) 
/opt/xchem-fragalysis-2/maxwin/BulkDock/SCRATCH/505734/C3284-P120/C3284-P120.minimised.mol

>  <scratch_subdir>  (246) 
/opt/xchem-fragalysis-2/maxwin/BulkDock/SCRATCH/505734/C3284-P120

>  <fragmenstein_runtime>  (246) 
4.096349000930786

>  <fragmenstein_outcome>  (246) 
too moved

>  <fragmenstein_mode>  (246) 
expansion

>  <fragmenstein_error>  (246) 


$$$$
C3285-P106
     RDKit          3D

 36 38  0  0  0  0  0  0  0  0999 V2000
   11.2834   -3.0598   15.1368 O   0  0  0  0  0  0  0  0  0  0  0  0
   12.3185   -3.3530   16.0776 C   0  0  0  0  0  0  0  0  0  0  0  0
   13.5387   -2.4985   15.7860 C   0  0  0  0  0  0  0  0  0  0  0  0
   13.4088   -1.0512   16.1098 C   0  0  0  0  0  0  0  0  0  0  0  0
   12.3600   -0.1835   16.0951 C   0  0  0  0  0  0  0  0  0  0  0  0
   11.0918   -0.6114   15.9250 O   0  0  0  0  0  0  0  0  0  0  0  0
   12.5762    1.1577   16.3659 C   0  0  0  0  0  0  0  0  0  0  0  0
   13.8551    1.5435   16.6797 C   0  0  0  0  0  0  0  0  0  0  0  0
   14.1380    2.8320   16.9773 O   0  0  0  0  0  0  0  0  0  0  0  0
   14.9018    0.7229   16.7654 N   0  0  0  0  0  0  0  0  0  0  0  0
   14.6294   -0.5601   16.5236 C   0  0  0  0  0  0  0  0  0  0  0  0
   15.5896   -1.5830   16.7131 N   0  0  0  0  0  0  0  0  0  0  0  0
   14.7909   -2.8339   16.6548 C   0  0  0  0  0  0  0  0  0  0  0  0
   14.4064   -3.2399   18.1001 C   0  0  0  0  0  0  0  0  0  0  0  0
   15.6286   -3.5512   18.9710 C   0  0  0  0  0  0  0  0  0  0  0  0
   16.5132   -4.6214   18.3444 C   0  0  0  0  0  0  0  0  0  0  0  0
   16.8945   -4.2799   16.9087 C   0  0  0  0  0  0  0  0  0  0  0  0
   15.6716   -3.9426   16.0509 C   0  0  0  0  0  0  0  0  0  0  0  0
   11.5160   -3.4801   14.2873 H   0  0  0  0  0  0  0  0  0  0  0  0
   11.9244   -3.1355   17.0661 H   0  0  0  0  0  0  0  0  0  0  0  0
   12.5403   -4.4200   16.0436 H   0  0  0  0  0  0  0  0  0  0  0  0
   13.7818   -2.5350   14.7176 H   0  0  0  0  0  0  0  0  0  0  0  0
   11.0801   -1.4762   15.4569 H   0  0  0  0  0  0  0  0  0  0  0  0
   11.7681    1.8786   16.3650 H   0  0  0  0  0  0  0  0  0  0  0  0
   15.0763    2.7425   17.2249 H   0  0  0  0  0  0  0  0  0  0  0  0
   16.2702   -1.4755   15.9638 H   0  0  0  0  0  0  0  0  0  0  0  0
   13.7743   -4.1363   18.0913 H   0  0  0  0  0  0  0  0  0  0  0  0
   13.8362   -2.4484   18.5949 H   0  0  0  0  0  0  0  0  0  0  0  0
   16.2143   -2.6385   19.1336 H   0  0  0  0  0  0  0  0  0  0  0  0
   15.2941   -3.8876   19.9593 H   0  0  0  0  0  0  0  0  0  0  0  0
   17.4201   -4.7499   18.9461 H   0  0  0  0  0  0  0  0  0  0  0  0
   15.9862   -5.5815   18.3640 H   0  0  0  0  0  0  0  0  0  0  0  0
   17.4291   -5.1264   16.4623 H   0  0  0  0  0  0  0  0  0  0  0  0
   17.5932   -3.4346   16.9084 H   0  0  0  0  0  0  0  0  0  0  0  0
   15.0751   -4.8525   15.9445 H   0  0  0  0  0  0  0  0  0  0  0  0
   16.0179   -3.6549   15.0509 H   0  0  0  0  0  0  0  0  0  0  0  0
  1  2  1  0
  2  3  1  0
  3  4  1  0
  4  5  2  0
  5  6  1  0
  5  7  1  0
  7  8  2  0
  8  9  1  0
  8 10  1  0
 10 11  2  0
 11 12  1  0
 12 13  1  0
 13 14  1  0
 14 15  1  0
 15 16  1  0
 16 17  1  0
 17 18  1  0
 13  3  1  0
 11  4  1  0
 18 13  1  0
  1 19  1  0
  2 20  1  0
  2 21  1  0
  3 22  1  0
  6 23  1  0
  7 24  1  0
  9 25  1  0
 12 26  1  0
 14 27  1  0
 14 28  1  0
 15 29  1  0
 15 30  1  0
 16 31  1  0
 16 32  1  0
 17 33  1  0
 17 34  1  0
 18 35  1  0
 18 36  1  0
M  END
>  <Energy>  (247) 
-40.167062190462204

>  <compound_id>  (247) 
3285

>  <target_id>  (247) 
1

>  <reference_id>  (247) 
106

>  <inspiration_ids>  (247) 
[106, 122]

>  <energy_score>  (247) 
-66.30823447090559

>  <distance_score>  (247) 
2.648241551266871

>  <path>  (247) 
/opt/xchem-fragalysis-2/maxwin/BulkDock/SCRATCH/505734/C3285-P106/C3285-P106.minimised.mol

>  <scratch_subdir>  (247) 
/opt/xchem-fragalysis-2/maxwin/BulkDock/SCRATCH/505734/C3285-P106

>  <fragmenstein_runtime>  (247) 
2.405978202819824

>  <fragmenstein_outcome>  (247) 
too moved

>  <fragmenstein_mode>  (247) 
expansion

>  <fragmenstein_error>  (247) 


$$$$
C3285-P122
     RDKit          3D

 36 38  0  0  0  0  0  0  0  0999 V2000
   10.8404   -2.6466   15.1668 O   0  0  0  0  0  0  0  0  0  0  0  0
   12.2270   -2.6835   14.7967 C   0  0  0  0  0  0  0  0  0  0  0  0
   12.7631   -1.2728   14.7641 C   0  0  0  0  0  0  0  0  0  0  0  0
   13.2001   -0.5988   16.0292 C   0  0  0  0  0  0  0  0  0  0  0  0
   13.5799   -1.0207   17.2798 C   0  0  0  0  0  0  0  0  0  0  0  0
   13.5658   -2.3480   17.5839 O   0  0  0  0  0  0  0  0  0  0  0  0
   14.1292   -0.0971   18.1686 C   0  0  0  0  0  0  0  0  0  0  0  0
   14.3350    1.1846   17.7009 C   0  0  0  0  0  0  0  0  0  0  0  0
   14.7422    2.1801   18.5134 O   0  0  0  0  0  0  0  0  0  0  0  0
   14.2349    1.5585   16.4305 N   0  0  0  0  0  0  0  0  0  0  0  0
   13.7579    0.6102   15.6357 C   0  0  0  0  0  0  0  0  0  0  0  0
   14.1602    0.5456   14.2747 N   0  0  0  0  0  0  0  0  0  0  0  0
   14.0515   -0.9078   13.9718 C   0  0  0  0  0  0  0  0  0  0  0  0
   15.2968   -1.7084   14.4319 C   0  0  0  0  0  0  0  0  0  0  0  0
   16.5630   -1.4056   13.6263 C   0  0  0  0  0  0  0  0  0  0  0  0
   16.3405   -1.5700   12.1323 C   0  0  0  0  0  0  0  0  0  0  0  0
   15.1783   -0.7133   11.6646 C   0  0  0  0  0  0  0  0  0  0  0  0
   13.9041   -1.0058   12.4571 C   0  0  0  0  0  0  0  0  0  0  0  0
   10.3490   -2.3214   14.3811 H   0  0  0  0  0  0  0  0  0  0  0  0
   12.7515   -3.3411   15.4909 H   0  0  0  0  0  0  0  0  0  0  0  0
   12.2530   -3.1236   13.7978 H   0  0  0  0  0  0  0  0  0  0  0  0
   11.9374   -0.6565   14.3664 H   0  0  0  0  0  0  0  0  0  0  0  0
   13.8997   -2.4897   18.4875 H   0  0  0  0  0  0  0  0  0  0  0  0
   14.3935   -0.3491   19.1881 H   0  0  0  0  0  0  0  0  0  0  0  0
   14.7627    2.9203   17.8799 H   0  0  0  0  0  0  0  0  0  0  0  0
   15.0598    1.0085   14.1849 H   0  0  0  0  0  0  0  0  0  0  0  0
   15.0956   -2.7780   14.3509 H   0  0  0  0  0  0  0  0  0  0  0  0
   15.5537   -1.5307   15.4807 H   0  0  0  0  0  0  0  0  0  0  0  0
   16.9006   -0.3841   13.8391 H   0  0  0  0  0  0  0  0  0  0  0  0
   17.3680   -2.0753   13.9507 H   0  0  0  0  0  0  0  0  0  0  0  0
   17.2501   -1.2923   11.5883 H   0  0  0  0  0  0  0  0  0  0  0  0
   16.1374   -2.6210   11.9001 H   0  0  0  0  0  0  0  0  0  0  0  0
   14.9934   -0.8917   10.5990 H   0  0  0  0  0  0  0  0  0  0  0  0
   15.4415    0.3470   11.7634 H   0  0  0  0  0  0  0  0  0  0  0  0
   13.5567   -2.0073   12.1949 H   0  0  0  0  0  0  0  0  0  0  0  0
   13.1689   -0.2614   12.1450 H   0  0  0  0  0  0  0  0  0  0  0  0
  1  2  1  0
  2  3  1  0
  3  4  1  0
  4  5  2  0
  5  6  1  0
  5  7  1  0
  7  8  2  0
  8  9  1  0
  8 10  1  0
 10 11  2  0
 11 12  1  0
 12 13  1  0
 13 14  1  0
 14 15  1  0
 15 16  1  0
 16 17  1  0
 17 18  1  0
 13  3  1  0
 11  4  1  0
 18 13  1  0
  1 19  1  0
  2 20  1  0
  2 21  1  0
  3 22  1  0
  6 23  1  0
  7 24  1  0
  9 25  1  0
 12 26  1  0
 14 27  1  0
 14 28  1  0
 15 29  1  0
 15 30  1  0
 16 31  1  0
 16 32  1  0
 17 33  1  0
 17 34  1  0
 18 35  1  0
 18 36  1  0
M  END
>  <Energy>  (248) 
-15.365088361449601

>  <compound_id>  (248) 
3285

>  <target_id>  (248) 
1

>  <reference_id>  (248) 
122

>  <inspiration_ids>  (248) 
[106, 122]

>  <energy_score>  (248) 
-41.50626064189075

>  <distance_score>  (248) 
2.1137615641713516

>  <path>  (248) 
/opt/xchem-fragalysis-2/maxwin/BulkDock/SCRATCH/505734/C3285-P122/C3285-P122.minimised.mol

>  <scratch_subdir>  (248) 
/opt/xchem-fragalysis-2/maxwin/BulkDock/SCRATCH/505734/C3285-P122

>  <fragmenstein_runtime>  (248) 
1.8417367935180664

>  <fragmenstein_outcome>  (248) 
too moved

>  <fragmenstein_mode>  (248) 
expansion

>  <fragmenstein_error>  (248) 


$$$$
C3294-P107
     RDKit          3D

 19 20  0  0  0  0  0  0  0  0999 V2000
  -12.3772  -21.9099   33.5803 C   0  0  0  0  0  0  0  0  0  0  0  0
  -12.1016  -22.6262   32.3320 C   0  0  0  0  0  0  0  0  0  0  0  0
  -11.7094  -23.9343   32.1656 C   0  0  0  0  0  0  0  0  0  0  0  0
  -11.6407  -24.1171   30.8127 N   0  0  0  0  0  0  0  0  0  0  0  0
  -11.2620  -25.2329   30.0582 C   0  0  0  0  0  0  0  0  0  0  0  0
  -10.8353  -26.4100   30.6525 O   0  0  0  0  0  0  0  0  0  0  0  0
  -11.2953  -25.1396   28.7199 C   0  0  0  0  0  0  0  0  0  0  0  0
  -11.7439  -23.8332   28.2103 C   0  0  0  0  0  0  0  0  0  0  0  0
  -11.7948  -23.8166   26.8730 O   0  0  0  0  0  0  0  0  0  0  0  0
  -12.0787  -22.7762   28.8590 N   0  0  0  0  0  0  0  0  0  0  0  0
  -12.0185  -22.9104   30.2151 C   0  0  0  0  0  0  0  0  0  0  0  0
  -12.2565  -21.9979   31.1285 N   0  0  0  0  0  0  0  0  0  0  0  0
  -13.4590  -21.8073   33.7134 H   0  0  0  0  0  0  0  0  0  0  0  0
  -11.9818  -22.4806   34.4152 H   0  0  0  0  0  0  0  0  0  0  0  0
  -11.9487  -20.9055   33.5697 H   0  0  0  0  0  0  0  0  0  0  0  0
  -11.5207  -24.7182   32.8832 H   0  0  0  0  0  0  0  0  0  0  0  0
  -10.6063  -26.2479   31.5865 H   0  0  0  0  0  0  0  0  0  0  0  0
  -11.0131  -25.9330   28.0458 H   0  0  0  0  0  0  0  0  0  0  0  0
  -12.1199  -22.9393   26.5863 H   0  0  0  0  0  0  0  0  0  0  0  0
  1  2  1  0
  2  3  2  0
  3  4  1  0
  4  5  1  0
  5  6  1  0
  5  7  2  0
  7  8  1  0
  8  9  1  0
  8 10  2  0
 10 11  1  0
 11 12  2  0
 12  2  1  0
 11  4  1  0
  1 13  1  0
  1 14  1  0
  1 15  1  0
  3 16  1  0
  6 17  1  0
  7 18  1  0
  9 19  1  0
M  END
>  <Energy>  (249) 
-2.7181803479251485

>  <compound_id>  (249) 
3294

>  <target_id>  (249) 
1

>  <reference_id>  (249) 
107

>  <inspiration_ids>  (249) 
[107, 35]

>  <energy_score>  (249) 
-45.75798633246768

>  <distance_score>  (249) 
1.4406088054238166

>  <path>  (249) 
/opt/xchem-fragalysis-2/maxwin/BulkDock/SCRATCH/505734/C3294-P107/C3294-P107.minimised.mol

>  <scratch_subdir>  (249) 
/opt/xchem-fragalysis-2/maxwin/BulkDock/SCRATCH/505734/C3294-P107

>  <fragmenstein_runtime>  (249) 
1.0584421157836914

>  <fragmenstein_outcome>  (249) 
too moved

>  <fragmenstein_mode>  (249) 
expansion

>  <fragmenstein_error>  (249) 


$$$$
C3294-P35
     RDKit          3D

 19 20  0  0  0  0  0  0  0  0999 V2000
  -11.2301  -21.7436   33.9425 C   0  0  0  0  0  0  0  0  0  0  0  0
  -11.4325  -22.4776   32.6718 C   0  0  0  0  0  0  0  0  0  0  0  0
  -11.1399  -23.7927   32.3963 C   0  0  0  0  0  0  0  0  0  0  0  0
  -11.4025  -23.9633   31.0642 N   0  0  0  0  0  0  0  0  0  0  0  0
  -11.1701  -25.0687   30.2381 C   0  0  0  0  0  0  0  0  0  0  0  0
  -10.6847  -26.2389   30.7967 O   0  0  0  0  0  0  0  0  0  0  0  0
  -11.3906  -24.9395   28.9196 C   0  0  0  0  0  0  0  0  0  0  0  0
  -11.8701  -23.6041   28.5134 C   0  0  0  0  0  0  0  0  0  0  0  0
  -12.0268  -23.5562   27.1820 O   0  0  0  0  0  0  0  0  0  0  0  0
  -12.1266  -22.5718   29.2380 N   0  0  0  0  0  0  0  0  0  0  0  0
  -11.8742  -22.7426   30.5741 C   0  0  0  0  0  0  0  0  0  0  0  0
  -11.9185  -21.8494   31.5441 N   0  0  0  0  0  0  0  0  0  0  0  0
  -10.6024  -20.8629   33.7748 H   0  0  0  0  0  0  0  0  0  0  0  0
  -10.7434  -22.3728   34.6944 H   0  0  0  0  0  0  0  0  0  0  0  0
  -12.1925  -21.4118   34.3439 H   0  0  0  0  0  0  0  0  0  0  0  0
  -10.7339  -24.5914   32.9997 H   0  0  0  0  0  0  0  0  0  0  0  0
  -10.4964  -26.8751   30.0853 H   0  0  0  0  0  0  0  0  0  0  0  0
  -11.2372  -25.7063   28.1769 H   0  0  0  0  0  0  0  0  0  0  0  0
  -12.3465  -22.6693   26.9145 H   0  0  0  0  0  0  0  0  0  0  0  0
  1  2  1  0
  2  3  2  0
  3  4  1  0
  4  5  1  0
  5  6  1  0
  5  7  2  0
  7  8  1  0
  8  9  1  0
  8 10  2  0
 10 11  1  0
 11 12  2  0
 12  2  1  0
 11  4  1  0
  1 13  1  0
  1 14  1  0
  1 15  1  0
  3 16  1  0
  6 17  1  0
  7 18  1  0
  9 19  1  0
M  END
>  <Energy>  (250) 
-2.9404810497784633

>  <compound_id>  (250) 
3294

>  <target_id>  (250) 
1

>  <reference_id>  (250) 
35

>  <inspiration_ids>  (250) 
[107, 35]

>  <energy_score>  (250) 
-45.98028703432263

>  <distance_score>  (250) 
0.7990925772496261

>  <path>  (250) 
/opt/xchem-fragalysis-2/maxwin/BulkDock/SCRATCH/505734/C3294-P35/C3294-P35.minimised.mol

>  <scratch_subdir>  (250) 
/opt/xchem-fragalysis-2/maxwin/BulkDock/SCRATCH/505734/C3294-P35

>  <fragmenstein_runtime>  (250) 
0.8124091625213623

>  <fragmenstein_outcome>  (250) 
acceptable

>  <fragmenstein_mode>  (250) 
expansion

>  <fragmenstein_error>  (250) 


$$$$
C3290-P107
     RDKit          3D

 23 25  0  0  0  0  0  0  0  0999 V2000
  -10.0820  -26.8954   30.7879 C   0  0  0  0  0  0  0  0  0  0  0  0
  -10.8272  -25.9890   30.5472 C   0  0  0  0  0  0  0  0  0  0  0  0
  -11.8002  -24.9660   30.1703 C   0  0  0  0  0  0  0  0  0  0  0  0
  -11.6406  -24.5804   28.7241 C   0  0  0  0  0  0  0  0  0  0  0  0
  -11.6969  -23.2901   28.3433 C   0  0  0  0  0  0  0  0  0  0  0  0
  -11.6754  -23.2418   26.9664 N   0  0  0  0  0  0  0  0  0  0  0  0
  -11.7479  -24.5900   26.4093 C   0  0  0  0  0  0  0  0  0  0  0  0
  -11.5507  -25.4102   27.5999 N   0  0  0  0  0  0  0  0  0  0  0  0
  -11.8312  -22.2737   29.2381 N   0  0  0  0  0  0  0  0  0  0  0  0
  -11.8716  -22.5003   30.5717 C   0  0  0  0  0  0  0  0  0  0  0  0
  -11.9551  -21.6481   31.5627 N   0  0  0  0  0  0  0  0  0  0  0  0
  -12.0481  -22.4135   32.6997 C   0  0  0  0  0  0  0  0  0  0  0  0
  -11.9533  -23.7521   32.4049 C   0  0  0  0  0  0  0  0  0  0  0  0
  -11.8221  -23.7941   31.0464 N   0  0  0  0  0  0  0  0  0  0  0  0
   -9.4166  -27.7027   30.9816 H   0  0  0  0  0  0  0  0  0  0  0  0
  -12.7919  -25.3868   30.2723 H   0  0  0  0  0  0  0  0  0  0  0  0
  -12.2711  -22.5386   26.5354 H   0  0  0  0  0  0  0  0  0  0  0  0
  -12.7334  -24.7750   25.9693 H   0  0  0  0  0  0  0  0  0  0  0  0
  -10.9653  -24.7576   25.6669 H   0  0  0  0  0  0  0  0  0  0  0  0
  -12.0478  -26.2902   27.6487 H   0  0  0  0  0  0  0  0  0  0  0  0
  -11.6490  -21.3411   28.8830 H   0  0  0  0  0  0  0  0  0  0  0  0
  -12.1800  -21.9631   33.6747 H   0  0  0  0  0  0  0  0  0  0  0  0
  -11.9968  -24.6369   33.0242 H   0  0  0  0  0  0  0  0  0  0  0  0
  1  2  3  0
  2  3  1  0
  3  4  1  0
  4  5  2  0
  5  6  1  0
  6  7  1  0
  7  8  1  0
  5  9  1  0
  9 10  1  0
 10 11  2  0
 11 12  1  0
 12 13  2  0
 13 14  1  0
 14  3  1  0
  8  4  1  0
 14 10  1  0
  1 15  1  0
  3 16  1  0
  6 17  1  0
  7 18  1  0
  7 19  1  0
  8 20  1  0
  9 21  1  0
 12 22  1  0
 13 23  1  0
M  END
>  <Energy>  (251) 
-17.183031796972511

>  <compound_id>  (251) 
3290

>  <target_id>  (251) 
1

>  <reference_id>  (251) 
107

>  <inspiration_ids>  (251) 
[107, 39]

>  <energy_score>  (251) 
-32.53586614819895

>  <distance_score>  (251) 
0.6027867803814333

>  <path>  (251) 
/opt/xchem-fragalysis-2/maxwin/BulkDock/SCRATCH/505734/C3290-P107/C3290-P107.minimised.mol

>  <scratch_subdir>  (251) 
/opt/xchem-fragalysis-2/maxwin/BulkDock/SCRATCH/505734/C3290-P107

>  <fragmenstein_runtime>  (251) 
0.9592382907867432

>  <fragmenstein_outcome>  (251) 
acceptable

>  <fragmenstein_mode>  (251) 
expansion

>  <fragmenstein_error>  (251) 


$$$$
C3290-P39
     RDKit          3D

 23 25  0  0  0  0  0  0  0  0999 V2000
   -9.9918  -26.6968   31.0133 C   0  0  0  0  0  0  0  0  0  0  0  0
  -10.7992  -25.8731   30.6969 C   0  0  0  0  0  0  0  0  0  0  0  0
  -11.8364  -24.9392   30.2759 C   0  0  0  0  0  0  0  0  0  0  0  0
  -11.6788  -24.5854   28.8217 C   0  0  0  0  0  0  0  0  0  0  0  0
  -11.7291  -23.3035   28.4129 C   0  0  0  0  0  0  0  0  0  0  0  0
  -11.6951  -23.2846   27.0353 N   0  0  0  0  0  0  0  0  0  0  0  0
  -11.7694  -24.6430   26.5058 C   0  0  0  0  0  0  0  0  0  0  0  0
  -11.5856  -25.4407   27.7160 N   0  0  0  0  0  0  0  0  0  0  0  0
  -11.8685  -22.2687   29.2862 N   0  0  0  0  0  0  0  0  0  0  0  0
  -11.9415  -22.4682   30.6223 C   0  0  0  0  0  0  0  0  0  0  0  0
  -12.0400  -21.5983   31.5959 N   0  0  0  0  0  0  0  0  0  0  0  0
  -12.1800  -22.3379   32.7439 C   0  0  0  0  0  0  0  0  0  0  0  0
  -12.0871  -23.6812   32.4759 C   0  0  0  0  0  0  0  0  0  0  0  0
  -11.9175  -23.7502   31.1225 N   0  0  0  0  0  0  0  0  0  0  0  0
   -9.2877  -27.4512   31.2618 H   0  0  0  0  0  0  0  0  0  0  0  0
  -12.7972  -25.4230   30.3927 H   0  0  0  0  0  0  0  0  0  0  0  0
  -12.2881  -22.5889   26.5851 H   0  0  0  0  0  0  0  0  0  0  0  0
  -12.7521  -24.8331   26.0617 H   0  0  0  0  0  0  0  0  0  0  0  0
  -10.9815  -24.8295   25.7740 H   0  0  0  0  0  0  0  0  0  0  0  0
  -12.1016  -26.3086   27.7787 H   0  0  0  0  0  0  0  0  0  0  0  0
  -11.6871  -21.3426   28.9159 H   0  0  0  0  0  0  0  0  0  0  0  0
  -12.3343  -21.8675   33.7069 H   0  0  0  0  0  0  0  0  0  0  0  0
  -12.1491  -24.5503   33.1135 H   0  0  0  0  0  0  0  0  0  0  0  0
  1  2  3  0
  2  3  1  0
  3  4  1  0
  4  5  2  0
  5  6  1  0
  6  7  1  0
  7  8  1  0
  5  9  1  0
  9 10  1  0
 10 11  2  0
 11 12  1  0
 12 13  2  0
 13 14  1  0
 14  3  1  0
  8  4  1  0
 14 10  1  0
  1 15  1  0
  3 16  1  0
  6 17  1  0
  7 18  1  0
  7 19  1  0
  8 20  1  0
  9 21  1  0
 12 22  1  0
 13 23  1  0
M  END
>  <Energy>  (252) 
-17.676634784981839

>  <compound_id>  (252) 
3290

>  <target_id>  (252) 
1

>  <reference_id>  (252) 
39

>  <inspiration_ids>  (252) 
[107, 39]

>  <energy_score>  (252) 
-33.02946913620977

>  <distance_score>  (252) 
0.5882813364876162

>  <path>  (252) 
/opt/xchem-fragalysis-2/maxwin/BulkDock/SCRATCH/505734/C3290-P39/C3290-P39.minimised.mol

>  <scratch_subdir>  (252) 
/opt/xchem-fragalysis-2/maxwin/BulkDock/SCRATCH/505734/C3290-P39

>  <fragmenstein_runtime>  (252) 
0.9432616233825684

>  <fragmenstein_outcome>  (252) 
acceptable

>  <fragmenstein_mode>  (252) 
expansion

>  <fragmenstein_error>  (252) 


$$$$
C3295-P107
     RDKit          3D

 34 36  0  0  0  0  0  0  0  0999 V2000
  -16.0106  -24.6588   25.3535 N   0  0  0  0  0  0  0  0  0  0  0  0
  -14.4488  -24.7150   24.8640 S   0  0  0  0  0  0  0  0  0  0  0  0
  -13.8820  -23.3650   24.5876 O   0  0  0  0  0  0  0  0  0  0  0  0
  -13.6109  -25.4800   26.3591 C   0  0  0  0  0  0  0  0  0  0  0  0
  -13.5335  -24.5335   27.5640 C   0  0  0  0  0  0  0  0  0  0  0  0
  -12.6092  -24.5327   28.7383 C   0  0  0  0  0  0  0  0  0  0  0  0
  -11.3219  -24.9219   28.7325 C   0  0  0  0  0  0  0  0  0  0  0  0
  -10.5006  -25.0006   27.4616 C   0  0  0  0  0  0  0  0  0  0  0  0
  -11.2465  -24.7433   26.1347 C   0  0  0  0  0  0  0  0  0  0  0  0
  -10.4103  -24.7211   25.0755 F   0  0  0  0  0  0  0  0  0  0  0  0
  -12.2269  -25.8756   25.9078 C   0  0  0  0  0  0  0  0  0  0  0  0
  -10.6294  -25.1125   30.0819 C   0  0  0  0  0  0  0  0  0  0  0  0
  -10.7299  -26.4902   30.4448 O   0  0  0  0  0  0  0  0  0  0  0  0
  -11.2272  -24.2991   31.1376 N   0  0  0  0  0  0  0  0  0  0  0  0
  -10.8181  -24.0654   32.4162 C   0  0  0  0  0  0  0  0  0  0  0  0
  -11.7651  -23.1962   32.9237 C   0  0  0  0  0  0  0  0  0  0  0  0
  -12.6981  -22.8678   31.9794 N   0  0  0  0  0  0  0  0  0  0  0  0
  -12.4012  -23.6304   30.9617 C   0  0  0  0  0  0  0  0  0  0  0  0
  -13.0971  -23.8599   29.8452 N   0  0  0  0  0  0  0  0  0  0  0  0
  -16.2864  -24.9582   26.2837 H   0  0  0  0  0  0  0  0  0  0  0  0
  -16.5158  -23.7971   25.1586 H   0  0  0  0  0  0  0  0  0  0  0  0
  -14.1888  -26.3790   26.6019 H   0  0  0  0  0  0  0  0  0  0  0  0
  -14.5334  -24.5969   28.0003 H   0  0  0  0  0  0  0  0  0  0  0  0
  -13.2843  -23.5434   27.1784 H   0  0  0  0  0  0  0  0  0  0  0  0
   -9.7014  -24.2561   27.5403 H   0  0  0  0  0  0  0  0  0  0  0  0
  -10.0070  -25.9792   27.4290 H   0  0  0  0  0  0  0  0  0  0  0  0
  -11.6789  -23.7438   26.1186 H   0  0  0  0  0  0  0  0  0  0  0  0
  -12.2033  -26.2177   24.8700 H   0  0  0  0  0  0  0  0  0  0  0  0
  -11.9073  -26.7418   26.4975 H   0  0  0  0  0  0  0  0  0  0  0  0
   -9.5695  -24.8656   30.0203 H   0  0  0  0  0  0  0  0  0  0  0  0
  -10.3145  -26.5876   31.3218 H   0  0  0  0  0  0  0  0  0  0  0  0
   -9.9414  -24.5244   32.8485 H   0  0  0  0  0  0  0  0  0  0  0  0
  -11.8369  -22.7908   33.9234 H   0  0  0  0  0  0  0  0  0  0  0  0
  -14.0662  -23.5584   29.8778 H   0  0  0  0  0  0  0  0  0  0  0  0
  1  2  1  0
  2  3  2  0
  2  4  1  0
  4  5  1  0
  5  6  1  0
  6  7  2  0
  7  8  1  0
  8  9  1  0
  9 10  1  0
  9 11  1  0
  7 12  1  0
 12 13  1  0
 12 14  1  0
 14 15  1  0
 15 16  2  0
 16 17  1  0
 17 18  2  0
 18 19  1  0
 11  4  1  0
 18 14  1  0
 19  6  1  0
  1 20  1  0
  1 21  1  0
  4 22  1  0
  5 23  1  0
  5 24  1  0
  8 25  1  0
  8 26  1  0
  9 27  1  0
 11 28  1  0
 11 29  1  0
 12 30  1  0
 13 31  1  0
 15 32  1  0
 16 33  1  0
 19 34  1  0
M  END
>  <Energy>  (253) 
8.4643614942061589

>  <compound_id>  (253) 
3295

>  <target_id>  (253) 
1

>  <reference_id>  (253) 
107

>  <inspiration_ids>  (253) 
[107, 42]

>  <energy_score>  (253) 
-10.631371622006895

>  <distance_score>  (253) 
1.6411414350511713

>  <path>  (253) 
/opt/xchem-fragalysis-2/maxwin/BulkDock/SCRATCH/505734/C3295-P107/C3295-P107.minimised.mol

>  <scratch_subdir>  (253) 
/opt/xchem-fragalysis-2/maxwin/BulkDock/SCRATCH/505734/C3295-P107

>  <fragmenstein_runtime>  (253) 
4.228530406951904

>  <fragmenstein_outcome>  (253) 
too moved

>  <fragmenstein_mode>  (253) 
expansion

>  <fragmenstein_error>  (253) 


$$$$
C3295-P42
     RDKit          3D

 34 36  0  0  0  0  0  0  0  0999 V2000
  -15.6421  -22.9340   24.6450 N   0  0  0  0  0  0  0  0  0  0  0  0
  -13.9964  -23.0909   24.5081 S   0  0  0  0  0  0  0  0  0  0  0  0
  -13.3311  -21.7575   24.4667 O   0  0  0  0  0  0  0  0  0  0  0  0
  -13.6307  -23.8490   26.1737 C   0  0  0  0  0  0  0  0  0  0  0  0
  -12.4862  -23.0262   26.8077 C   0  0  0  0  0  0  0  0  0  0  0  0
  -11.8853  -23.4691   28.1274 C   0  0  0  0  0  0  0  0  0  0  0  0
  -11.3829  -24.6953   28.3979 C   0  0  0  0  0  0  0  0  0  0  0  0
  -11.2981  -25.8342   27.4192 C   0  0  0  0  0  0  0  0  0  0  0  0
  -11.8477  -25.6690   26.0055 C   0  0  0  0  0  0  0  0  0  0  0  0
  -11.6961  -26.8788   25.3800 F   0  0  0  0  0  0  0  0  0  0  0  0
  -13.3338  -25.3342   25.9930 C   0  0  0  0  0  0  0  0  0  0  0  0
  -10.7396  -24.9679   29.7725 C   0  0  0  0  0  0  0  0  0  0  0  0
  -11.1556  -26.2344   30.2809 O   0  0  0  0  0  0  0  0  0  0  0  0
  -11.0236  -23.9278   30.7524 N   0  0  0  0  0  0  0  0  0  0  0  0
  -10.8917  -23.9292   32.1114 C   0  0  0  0  0  0  0  0  0  0  0  0
  -11.4381  -22.7156   32.4839 C   0  0  0  0  0  0  0  0  0  0  0  0
  -11.6580  -21.9054   31.4018 N   0  0  0  0  0  0  0  0  0  0  0  0
  -11.5038  -22.6984   30.3776 C   0  0  0  0  0  0  0  0  0  0  0  0
  -11.7936  -22.4780   29.0865 N   0  0  0  0  0  0  0  0  0  0  0  0
  -16.1400  -23.5022   25.3277 H   0  0  0  0  0  0  0  0  0  0  0  0
  -15.9531  -21.9699   24.7844 H   0  0  0  0  0  0  0  0  0  0  0  0
  -14.5353  -23.7676   26.7707 H   0  0  0  0  0  0  0  0  0  0  0  0
  -12.8511  -21.9975   26.9245 H   0  0  0  0  0  0  0  0  0  0  0  0
  -11.6630  -22.9360   26.0952 H   0  0  0  0  0  0  0  0  0  0  0  0
  -10.2476  -26.1370   27.3372 H   0  0  0  0  0  0  0  0  0  0  0  0
  -11.8036  -26.7044   27.8600 H   0  0  0  0  0  0  0  0  0  0  0  0
  -11.2510  -24.9594   25.4268 H   0  0  0  0  0  0  0  0  0  0  0  0
  -13.7951  -25.7262   25.0790 H   0  0  0  0  0  0  0  0  0  0  0  0
  -13.8224  -25.8903   26.8048 H   0  0  0  0  0  0  0  0  0  0  0  0
   -9.6512  -25.0047   29.6567 H   0  0  0  0  0  0  0  0  0  0  0  0
  -11.8715  -26.0515   30.9184 H   0  0  0  0  0  0  0  0  0  0  0  0
  -10.5781  -24.7919   32.6792 H   0  0  0  0  0  0  0  0  0  0  0  0
  -11.7176  -22.3886   33.4743 H   0  0  0  0  0  0  0  0  0  0  0  0
  -12.3089  -21.6128   28.9222 H   0  0  0  0  0  0  0  0  0  0  0  0
  1  2  1  0
  2  3  2  0
  2  4  1  0
  4  5  1  0
  5  6  1  0
  6  7  2  0
  7  8  1  0
  8  9  1  0
  9 10  1  0
  9 11  1  0
  7 12  1  0
 12 13  1  0
 12 14  1  0
 14 15  1  0
 15 16  2  0
 16 17  1  0
 17 18  2  0
 18 19  1  0
 11  4  1  0
 18 14  1  0
 19  6  1  0
  1 20  1  0
  1 21  1  0
  4 22  1  0
  5 23  1  0
  5 24  1  0
  8 25  1  0
  8 26  1  0
  9 27  1  0
 11 28  1  0
 11 29  1  0
 12 30  1  0
 13 31  1  0
 15 32  1  0
 16 33  1  0
 19 34  1  0
M  END
>  <Energy>  (254) 
-13.053832473092708

>  <compound_id>  (254) 
3295

>  <target_id>  (254) 
1

>  <reference_id>  (254) 
42

>  <inspiration_ids>  (254) 
[107, 42]

>  <energy_score>  (254) 
-32.149565589307

>  <distance_score>  (254) 
1.2508724727750566

>  <path>  (254) 
/opt/xchem-fragalysis-2/maxwin/BulkDock/SCRATCH/505734/C3295-P42/C3295-P42.minimised.mol

>  <scratch_subdir>  (254) 
/opt/xchem-fragalysis-2/maxwin/BulkDock/SCRATCH/505734/C3295-P42

>  <fragmenstein_runtime>  (254) 
3.632038116455078

>  <fragmenstein_outcome>  (254) 
too moved

>  <fragmenstein_mode>  (254) 
expansion

>  <fragmenstein_error>  (254) 


$$$$
C3297-P107
     RDKit          3D

 27 29  0  0  0  0  0  0  0  0999 V2000
  -11.9787  -20.0520   33.6451 O   0  0  0  0  0  0  0  0  0  0  0  0
  -12.3490  -21.3227   33.2103 C   0  0  0  0  0  0  0  0  0  0  0  0
  -11.6158  -21.8562   31.9770 C   0  0  0  0  0  0  0  0  0  0  0  0
  -12.3418  -23.1159   31.4089 C   0  0  0  0  0  0  0  0  0  0  0  0
  -13.1076  -22.7120   30.1838 N   0  0  0  0  0  0  0  0  0  0  0  0
  -12.6982  -23.5699   29.1023 C   0  0  0  0  0  0  0  0  0  0  0  0
  -11.2956  -23.7425   29.3596 N   0  0  0  0  0  0  0  0  0  0  0  0
  -11.2820  -24.0518   30.8079 C   0  0  0  0  0  0  0  0  0  0  0  0
  -11.2306  -26.0946   30.9292 I   0  0  0  0  0  0  0  0  0  0  0  0
  -13.3266  -23.5202   32.3850 N   0  0  0  0  0  0  0  0  0  0  0  0
  -13.2004  -24.3577   33.4511 C   0  0  0  0  0  0  0  0  0  0  0  0
  -14.3855  -24.1788   34.1497 C   0  0  0  0  0  0  0  0  0  0  0  0
  -15.0665  -23.0915   33.7156 N   0  0  0  0  0  0  0  0  0  0  0  0
  -14.2176  -22.5745   32.8774 C   0  0  0  0  0  0  0  0  0  0  0  0
  -13.7711  -21.3056   32.9394 N   0  0  0  0  0  0  0  0  0  0  0  0
  -11.1266  -19.7966   33.2657 H   0  0  0  0  0  0  0  0  0  0  0  0
  -12.1244  -21.9726   34.0620 H   0  0  0  0  0  0  0  0  0  0  0  0
  -10.5987  -22.1009   32.2896 H   0  0  0  0  0  0  0  0  0  0  0  0
  -11.4729  -21.1037   31.2016 H   0  0  0  0  0  0  0  0  0  0  0  0
  -14.1102  -22.8611   30.3601 H   0  0  0  0  0  0  0  0  0  0  0  0
  -13.2501  -24.5143   29.0858 H   0  0  0  0  0  0  0  0  0  0  0  0
  -12.8401  -23.0926   28.1307 H   0  0  0  0  0  0  0  0  0  0  0  0
  -10.9216  -22.8077   29.2106 H   0  0  0  0  0  0  0  0  0  0  0  0
  -10.3218  -23.7991   31.2490 H   0  0  0  0  0  0  0  0  0  0  0  0
  -12.3680  -25.0175   33.6093 H   0  0  0  0  0  0  0  0  0  0  0  0
  -14.7493  -24.7696   34.9775 H   0  0  0  0  0  0  0  0  0  0  0  0
  -14.2403  -20.8042   33.6906 H   0  0  0  0  0  0  0  0  0  0  0  0
  1  2  1  0
  2  3  1  0
  3  4  1  0
  4  5  1  0
  5  6  1  0
  6  7  1  0
  7  8  1  0
  8  9  1  0
  4 10  1  0
 10 11  1  0
 11 12  2  0
 12 13  1  0
 13 14  2  0
 14 15  1  0
 15  2  1  0
  8  4  1  0
 14 10  1  0
  1 16  1  0
  2 17  1  0
  3 18  1  0
  3 19  1  0
  5 20  1  0
  6 21  1  0
  6 22  1  0
  7 23  1  0
  8 24  1  0
 11 25  1  0
 12 26  1  0
 15 27  1  0
M  END
>  <Energy>  (255) 
-28.921953818859723

>  <compound_id>  (255) 
3297

>  <target_id>  (255) 
1

>  <reference_id>  (255) 
107

>  <inspiration_ids>  (255) 
[107, 46]

>  <energy_score>  (255) 
-4.195335439890968

>  <distance_score>  (255) 
2.270376356785247

>  <path>  (255) 
/opt/xchem-fragalysis-2/maxwin/BulkDock/SCRATCH/505734/C3297-P107/C3297-P107.minimised.mol

>  <scratch_subdir>  (255) 
/opt/xchem-fragalysis-2/maxwin/BulkDock/SCRATCH/505734/C3297-P107

>  <fragmenstein_runtime>  (255) 
2.1999518871307373

>  <fragmenstein_outcome>  (255) 
too moved

>  <fragmenstein_mode>  (255) 
expansion

>  <fragmenstein_error>  (255) 


$$$$
C3297-P46
     RDKit          3D

 27 29  0  0  0  0  0  0  0  0999 V2000
  -10.4561  -24.9588   34.1039 O   0  0  0  0  0  0  0  0  0  0  0  0
  -11.3973  -24.3515   33.2710 C   0  0  0  0  0  0  0  0  0  0  0  0
  -10.6717  -23.3758   32.3707 C   0  0  0  0  0  0  0  0  0  0  0  0
  -11.7047  -22.8389   31.3928 C   0  0  0  0  0  0  0  0  0  0  0  0
  -11.2914  -21.5976   30.6765 N   0  0  0  0  0  0  0  0  0  0  0  0
  -11.8399  -21.6944   29.3109 C   0  0  0  0  0  0  0  0  0  0  0  0
  -12.4666  -23.0085   29.1480 N   0  0  0  0  0  0  0  0  0  0  0  0
  -11.6640  -23.7230   30.1186 C   0  0  0  0  0  0  0  0  0  0  0  0
  -11.2094  -25.6833   29.8111 I   0  0  0  0  0  0  0  0  0  0  0  0
  -12.9157  -22.4467   32.1429 N   0  0  0  0  0  0  0  0  0  0  0  0
  -14.0785  -21.8072   31.7728 C   0  0  0  0  0  0  0  0  0  0  0  0
  -14.9344  -21.8437   32.8456 C   0  0  0  0  0  0  0  0  0  0  0  0
  -14.3467  -22.4856   33.8798 N   0  0  0  0  0  0  0  0  0  0  0  0
  -13.1695  -22.8492   33.4399 C   0  0  0  0  0  0  0  0  0  0  0  0
  -12.3003  -23.6263   34.0914 N   0  0  0  0  0  0  0  0  0  0  0  0
  -10.9825  -25.2122   34.8828 H   0  0  0  0  0  0  0  0  0  0  0  0
  -11.8990  -25.1484   32.7255 H   0  0  0  0  0  0  0  0  0  0  0  0
   -9.8242  -23.8871   31.9069 H   0  0  0  0  0  0  0  0  0  0  0  0
  -10.2295  -22.5605   32.9417 H   0  0  0  0  0  0  0  0  0  0  0  0
  -11.6011  -20.7715   31.1804 H   0  0  0  0  0  0  0  0  0  0  0  0
  -12.5459  -20.8979   29.1177 H   0  0  0  0  0  0  0  0  0  0  0  0
  -11.0088  -21.6232   28.6055 H   0  0  0  0  0  0  0  0  0  0  0  0
  -12.2633  -23.3457   28.2050 H   0  0  0  0  0  0  0  0  0  0  0  0
  -10.6690  -23.5422   29.7060 H   0  0  0  0  0  0  0  0  0  0  0  0
  -14.2968  -21.5939   30.7531 H   0  0  0  0  0  0  0  0  0  0  0  0
  -15.9599  -21.5072   32.8958 H   0  0  0  0  0  0  0  0  0  0  0  0
  -12.7218  -24.1173   34.8852 H   0  0  0  0  0  0  0  0  0  0  0  0
  1  2  1  0
  2  3  1  0
  3  4  1  0
  4  5  1  0
  5  6  1  0
  6  7  1  0
  7  8  1  0
  8  9  1  0
  4 10  1  0
 10 11  1  0
 11 12  2  0
 12 13  1  0
 13 14  2  0
 14 15  1  0
 15  2  1  0
  8  4  1  0
 14 10  1  0
  1 16  1  0
  2 17  1  0
  3 18  1  0
  3 19  1  0
  5 20  1  0
  6 21  1  0
  6 22  1  0
  7 23  1  0
  8 24  1  0
 11 25  1  0
 12 26  1  0
 15 27  1  0
M  END
>  <Energy>  (256) 
-36.98243170062031

>  <compound_id>  (256) 
3297

>  <target_id>  (256) 
1

>  <reference_id>  (256) 
46

>  <inspiration_ids>  (256) 
[107, 46]

>  <energy_score>  (256) 
-12.255813321649565

>  <distance_score>  (256) 
2.913520935836418

>  <path>  (256) 
/opt/xchem-fragalysis-2/maxwin/BulkDock/SCRATCH/505734/C3297-P46/C3297-P46.minimised.mol

>  <scratch_subdir>  (256) 
/opt/xchem-fragalysis-2/maxwin/BulkDock/SCRATCH/505734/C3297-P46

>  <fragmenstein_runtime>  (256) 
2.2788708209991455

>  <fragmenstein_outcome>  (256) 
too moved

>  <fragmenstein_mode>  (256) 
expansion

>  <fragmenstein_error>  (256) 


$$$$
C3298-P107
     RDKit          3D

 33 34  0  0  0  0  0  0  0  0999 V2000
  -11.4592  -21.3557   31.9551 C   0  0  0  0  0  0  0  0  0  0  0  0
  -12.9038  -21.8467   31.9171 C   0  0  0  0  0  0  0  0  0  0  0  0
  -13.6389  -21.3193   33.0110 O   0  0  0  0  0  0  0  0  0  0  0  0
  -13.0975  -23.2303   31.7963 N   0  0  0  0  0  0  0  0  0  0  0  0
  -12.5836  -24.0857   32.8208 C   0  0  0  0  0  0  0  0  0  0  0  0
  -12.4065  -23.3762   34.0512 N   0  0  0  0  0  0  0  0  0  0  0  0
  -11.3895  -24.7344   32.1655 C   0  0  0  0  0  0  0  0  0  0  0  0
  -11.8926  -24.9439   30.7955 N   0  0  0  0  0  0  0  0  0  0  0  0
  -12.7685  -23.8222   30.5294 C   0  0  0  0  0  0  0  0  0  0  0  0
  -12.0585  -23.0001   29.5565 N   0  0  0  0  0  0  0  0  0  0  0  0
  -11.3354  -23.9873   28.7823 C   0  0  0  0  0  0  0  0  0  0  0  0
  -10.8295  -24.8825   29.8054 N   0  0  0  0  0  0  0  0  0  0  0  0
  -10.6080  -26.2250   29.2937 C   0  0  0  0  0  0  0  0  0  0  0  0
  -10.2228  -27.0877   30.4091 N   0  0  0  0  0  0  0  0  0  0  0  0
   -9.2503  -26.3379   31.2000 O   0  0  0  0  0  0  0  0  0  0  0  0
  -10.7571  -22.0978   32.3228 H   0  0  0  0  0  0  0  0  0  0  0  0
  -11.0949  -21.1104   30.9559 H   0  0  0  0  0  0  0  0  0  0  0  0
  -11.3511  -20.4931   32.6155 H   0  0  0  0  0  0  0  0  0  0  0  0
  -13.4404  -21.5100   31.0506 H   0  0  0  0  0  0  0  0  0  0  0  0
  -13.5180  -22.0269   33.6832 H   0  0  0  0  0  0  0  0  0  0  0  0
  -13.3214  -24.8393   33.0455 H   0  0  0  0  0  0  0  0  0  0  0  0
  -11.5007  -22.9331   34.0858 H   0  0  0  0  0  0  0  0  0  0  0  0
  -12.4232  -24.0426   34.8346 H   0  0  0  0  0  0  0  0  0  0  0  0
  -11.1386  -25.6745   32.6597 H   0  0  0  0  0  0  0  0  0  0  0  0
  -10.5019  -24.0942   32.1979 H   0  0  0  0  0  0  0  0  0  0  0  0
  -13.6714  -24.1710   30.0263 H   0  0  0  0  0  0  0  0  0  0  0  0
  -12.7290  -22.5393   28.9639 H   0  0  0  0  0  0  0  0  0  0  0  0
  -10.5245  -23.5273   28.2101 H   0  0  0  0  0  0  0  0  0  0  0  0
  -12.0152  -24.4817   28.0741 H   0  0  0  0  0  0  0  0  0  0  0  0
  -11.4940  -26.6510   28.8066 H   0  0  0  0  0  0  0  0  0  0  0  0
   -9.7993  -26.2065   28.5532 H   0  0  0  0  0  0  0  0  0  0  0  0
   -9.6169  -27.8279   30.0639 H   0  0  0  0  0  0  0  0  0  0  0  0
   -9.4448  -25.4073   30.9698 H   0  0  0  0  0  0  0  0  0  0  0  0
  1  2  1  0
  2  3  1  0
  2  4  1  0
  4  5  1  0
  5  6  1  0
  5  7  1  0
  7  8  1  0
  8  9  1  0
  9 10  1  0
 10 11  1  0
 11 12  1  0
 12 13  1  0
 13 14  1  0
 14 15  1  0
  9  4  1  0
 12  8  1  0
  1 16  1  0
  1 17  1  0
  1 18  1  0
  2 19  1  0
  3 20  1  0
  5 21  1  0
  6 22  1  0
  6 23  1  0
  7 24  1  0
  7 25  1  0
  9 26  1  0
 10 27  1  0
 11 28  1  0
 11 29  1  0
 13 30  1  0
 13 31  1  0
 14 32  1  0
 15 33  1  0
M  END
>  <Energy>  (257) 
-82.478436648036634

>  <compound_id>  (257) 
3298

>  <target_id>  (257) 
1

>  <reference_id>  (257) 
107

>  <inspiration_ids>  (257) 
[107, 47]

>  <energy_score>  (257) 
-54.92383273610258

>  <distance_score>  (257) 
1.377870864589877

>  <path>  (257) 
/opt/xchem-fragalysis-2/maxwin/BulkDock/SCRATCH/505734/C3298-P107/C3298-P107.minimised.mol

>  <scratch_subdir>  (257) 
/opt/xchem-fragalysis-2/maxwin/BulkDock/SCRATCH/505734/C3298-P107

>  <fragmenstein_runtime>  (257) 
1.7685761451721191

>  <fragmenstein_outcome>  (257) 
too moved

>  <fragmenstein_mode>  (257) 
expansion

>  <fragmenstein_error>  (257) 


$$$$
C3298-P47
     RDKit          3D

 33 34  0  0  0  0  0  0  0  0999 V2000
  -12.1303  -21.5901   29.5069 C   0  0  0  0  0  0  0  0  0  0  0  0
  -12.9087  -22.5096   30.4786 C   0  0  0  0  0  0  0  0  0  0  0  0
  -13.5805  -21.8554   31.5237 O   0  0  0  0  0  0  0  0  0  0  0  0
  -11.8692  -23.3215   30.9752 N   0  0  0  0  0  0  0  0  0  0  0  0
  -12.1307  -24.1942   32.1137 C   0  0  0  0  0  0  0  0  0  0  0  0
  -12.3474  -23.3968   33.2898 N   0  0  0  0  0  0  0  0  0  0  0  0
  -10.8577  -25.0793   32.0249 C   0  0  0  0  0  0  0  0  0  0  0  0
  -10.5405  -24.9999   30.6029 N   0  0  0  0  0  0  0  0  0  0  0  0
  -11.6488  -24.3456   30.0030 C   0  0  0  0  0  0  0  0  0  0  0  0
  -11.1742  -24.0934   28.6700 N   0  0  0  0  0  0  0  0  0  0  0  0
  -10.3163  -25.2539   28.4198 C   0  0  0  0  0  0  0  0  0  0  0  0
  -10.2291  -26.0317   29.6758 N   0  0  0  0  0  0  0  0  0  0  0  0
  -11.2581  -27.0625   29.6296 C   0  0  0  0  0  0  0  0  0  0  0  0
  -10.6846  -28.2186   30.2497 N   0  0  0  0  0  0  0  0  0  0  0  0
  -10.7546  -28.0085   31.6563 O   0  0  0  0  0  0  0  0  0  0  0  0
  -12.0836  -22.0052   28.4978 H   0  0  0  0  0  0  0  0  0  0  0  0
  -12.5328  -20.6146   29.3261 H   0  0  0  0  0  0  0  0  0  0  0  0
  -11.1089  -21.3928   29.8535 H   0  0  0  0  0  0  0  0  0  0  0  0
  -13.6747  -23.0831   29.9627 H   0  0  0  0  0  0  0  0  0  0  0  0
  -13.2811  -22.3002   32.3464 H   0  0  0  0  0  0  0  0  0  0  0  0
  -13.0247  -24.8125   31.9656 H   0  0  0  0  0  0  0  0  0  0  0  0
  -11.5196  -22.8340   33.4454 H   0  0  0  0  0  0  0  0  0  0  0  0
  -12.4440  -24.0040   34.1128 H   0  0  0  0  0  0  0  0  0  0  0  0
  -11.0538  -26.0477   32.4498 H   0  0  0  0  0  0  0  0  0  0  0  0
  -10.0265  -24.6362   32.5855 H   0  0  0  0  0  0  0  0  0  0  0  0
  -12.5663  -24.9421   29.8809 H   0  0  0  0  0  0  0  0  0  0  0  0
  -10.5463  -23.3069   28.7278 H   0  0  0  0  0  0  0  0  0  0  0  0
   -9.3161  -24.8908   28.1815 H   0  0  0  0  0  0  0  0  0  0  0  0
  -10.6510  -25.8209   27.5437 H   0  0  0  0  0  0  0  0  0  0  0  0
  -11.4990  -27.3655   28.6040 H   0  0  0  0  0  0  0  0  0  0  0  0
  -12.2115  -26.8323   30.1045 H   0  0  0  0  0  0  0  0  0  0  0  0
   -9.6790  -28.1654   30.0496 H   0  0  0  0  0  0  0  0  0  0  0  0
   -9.8241  -27.8286   31.9298 H   0  0  0  0  0  0  0  0  0  0  0  0
  1  2  1  0
  2  3  1  0
  2  4  1  0
  4  5  1  0
  5  6  1  0
  5  7  1  0
  7  8  1  0
  8  9  1  0
  9 10  1  0
 10 11  1  0
 11 12  1  0
 12 13  1  0
 13 14  1  0
 14 15  1  0
  9  4  1  0
 12  8  1  0
  1 16  1  0
  1 17  1  0
  1 18  1  0
  2 19  1  0
  3 20  1  0
  5 21  1  0
  6 22  1  0
  6 23  1  0
  7 24  1  0
  7 25  1  0
  9 26  1  0
 10 27  1  0
 11 28  1  0
 11 29  1  0
 13 30  1  0
 13 31  1  0
 14 32  1  0
 15 33  1  0
M  END
>  <Energy>  (258) 
-50.491888688514805

>  <compound_id>  (258) 
3298

>  <target_id>  (258) 
1

>  <reference_id>  (258) 
47

>  <inspiration_ids>  (258) 
[107, 47]

>  <energy_score>  (258) 
-22.937284776580622

>  <distance_score>  (258) 
1.9828167764634739

>  <path>  (258) 
/opt/xchem-fragalysis-2/maxwin/BulkDock/SCRATCH/505734/C3298-P47/C3298-P47.minimised.mol

>  <scratch_subdir>  (258) 
/opt/xchem-fragalysis-2/maxwin/BulkDock/SCRATCH/505734/C3298-P47

>  <fragmenstein_runtime>  (258) 
1.3736956119537354

>  <fragmenstein_outcome>  (258) 
too moved

>  <fragmenstein_mode>  (258) 
expansion

>  <fragmenstein_error>  (258) 


$$$$
C3299-P107
     RDKit          3D

 33 33  0  0  0  0  0  0  0  0999 V2000
  -12.6411  -19.7071   34.7029 C   0  0  0  0  0  0  0  0  0  0  0  0
  -12.0472  -20.3695   33.5673 N   0  0  0  0  0  0  0  0  0  0  0  0
  -12.0201  -21.7568   33.6170 N   0  0  0  0  0  0  0  0  0  0  0  0
  -12.1711  -22.3658   32.4355 C   0  0  0  0  0  0  0  0  0  0  0  0
  -13.0804  -23.3550   32.2469 C   0  0  0  0  0  0  0  0  0  0  0  0
  -13.1001  -23.5122   30.8985 N   0  0  0  0  0  0  0  0  0  0  0  0
  -12.0723  -22.7878   30.3668 C   0  0  0  0  0  0  0  0  0  0  0  0
  -11.7464  -22.8940   29.0594 N   0  0  0  0  0  0  0  0  0  0  0  0
  -10.9026  -21.8972   28.5498 O   0  0  0  0  0  0  0  0  0  0  0  0
  -11.3827  -24.1884   28.4558 C   0  0  0  0  0  0  0  0  0  0  0  0
  -11.4204  -25.4417   29.3287 C   0  0  0  0  0  0  0  0  0  0  0  0
  -10.4335  -25.5098   30.4802 C   0  0  0  0  0  0  0  0  0  0  0  0
  -10.6421  -26.7544   31.1438 O   0  0  0  0  0  0  0  0  0  0  0  0
  -12.3053  -24.4493   27.3900 O   0  0  0  0  0  0  0  0  0  0  0  0
  -11.9119  -23.8156   26.1851 C   0  0  0  0  0  0  0  0  0  0  0  0
  -11.5522  -21.9978   31.2772 N   0  0  0  0  0  0  0  0  0  0  0  0
  -12.1181  -19.9210   35.6296 H   0  0  0  0  0  0  0  0  0  0  0  0
  -13.6982  -19.9685   34.7877 H   0  0  0  0  0  0  0  0  0  0  0  0
  -12.6053  -18.6227   34.5614 H   0  0  0  0  0  0  0  0  0  0  0  0
  -11.1439  -19.9664   33.3162 H   0  0  0  0  0  0  0  0  0  0  0  0
  -12.5465  -22.1944   34.3620 H   0  0  0  0  0  0  0  0  0  0  0  0
  -13.7653  -23.8649   32.9064 H   0  0  0  0  0  0  0  0  0  0  0  0
  -13.7296  -24.1189   30.3964 H   0  0  0  0  0  0  0  0  0  0  0  0
  -11.3460  -21.0584   28.7871 H   0  0  0  0  0  0  0  0  0  0  0  0
  -10.3629  -24.1308   28.0472 H   0  0  0  0  0  0  0  0  0  0  0  0
  -12.4309  -25.6497   29.6837 H   0  0  0  0  0  0  0  0  0  0  0  0
  -11.2235  -26.3079   28.6780 H   0  0  0  0  0  0  0  0  0  0  0  0
  -10.5524  -24.7200   31.2196 H   0  0  0  0  0  0  0  0  0  0  0  0
   -9.4092  -25.4805   30.1030 H   0  0  0  0  0  0  0  0  0  0  0  0
   -9.9352  -26.8732   31.8154 H   0  0  0  0  0  0  0  0  0  0  0  0
  -11.8467  -22.7391   26.3254 H   0  0  0  0  0  0  0  0  0  0  0  0
  -10.9669  -24.2304   25.8258 H   0  0  0  0  0  0  0  0  0  0  0  0
  -12.6812  -24.0134   25.4349 H   0  0  0  0  0  0  0  0  0  0  0  0
  1  2  1  0
  2  3  1  0
  3  4  1  0
  4  5  2  0
  5  6  1  0
  6  7  1  0
  7  8  1  0
  8  9  1  0
  8 10  1  0
 10 11  1  0
 11 12  1  0
 12 13  1  0
 10 14  1  0
 14 15  1  0
  7 16  2  0
 16  4  1  0
  1 17  1  0
  1 18  1  0
  1 19  1  0
  2 20  1  0
  3 21  1  0
  5 22  1  0
  6 23  1  0
  9 24  1  0
 10 25  1  0
 11 26  1  0
 11 27  1  0
 12 28  1  0
 12 29  1  0
 13 30  1  0
 15 31  1  0
 15 32  1  0
 15 33  1  0
M  END
>  <Energy>  (259) 
19.370453312985674

>  <compound_id>  (259) 
3299

>  <target_id>  (259) 
1

>  <reference_id>  (259) 
107

>  <inspiration_ids>  (259) 
[107, 49]

>  <energy_score>  (259) 
-26.669609788042266

>  <distance_score>  (259) 
1.6971849225734292

>  <path>  (259) 
/opt/xchem-fragalysis-2/maxwin/BulkDock/SCRATCH/505734/C3299-P107/C3299-P107.minimised.mol

>  <scratch_subdir>  (259) 
/opt/xchem-fragalysis-2/maxwin/BulkDock/SCRATCH/505734/C3299-P107

>  <fragmenstein_runtime>  (259) 
1.4279510974884033

>  <fragmenstein_outcome>  (259) 
too moved

>  <fragmenstein_mode>  (259) 
expansion

>  <fragmenstein_error>  (259) 


$$$$
C3299-P49
     RDKit          3D

 33 33  0  0  0  0  0  0  0  0999 V2000
  -13.9021  -21.6109   34.2262 C   0  0  0  0  0  0  0  0  0  0  0  0
  -12.4592  -21.7113   34.4834 N   0  0  0  0  0  0  0  0  0  0  0  0
  -11.8753  -22.6322   33.5850 N   0  0  0  0  0  0  0  0  0  0  0  0
  -11.6385  -22.1672   32.3482 C   0  0  0  0  0  0  0  0  0  0  0  0
  -11.4226  -20.8623   31.9915 C   0  0  0  0  0  0  0  0  0  0  0  0
  -11.4872  -20.8859   30.6398 N   0  0  0  0  0  0  0  0  0  0  0  0
  -11.6312  -22.1854   30.2417 C   0  0  0  0  0  0  0  0  0  0  0  0
  -11.6501  -22.4582   28.9238 N   0  0  0  0  0  0  0  0  0  0  0  0
  -11.3696  -21.3934   28.0442 O   0  0  0  0  0  0  0  0  0  0  0  0
  -11.0922  -23.7175   28.4304 C   0  0  0  0  0  0  0  0  0  0  0  0
  -11.4834  -24.9802   29.1829 C   0  0  0  0  0  0  0  0  0  0  0  0
  -10.4482  -25.3663   30.2310 C   0  0  0  0  0  0  0  0  0  0  0  0
  -10.9589  -26.3867   31.0837 O   0  0  0  0  0  0  0  0  0  0  0  0
  -11.6059  -23.8578   27.0998 O   0  0  0  0  0  0  0  0  0  0  0  0
  -10.5744  -23.8450   26.1406 C   0  0  0  0  0  0  0  0  0  0  0  0
  -11.7364  -22.9824   31.2728 N   0  0  0  0  0  0  0  0  0  0  0  0
  -14.4223  -22.4970   34.5892 H   0  0  0  0  0  0  0  0  0  0  0  0
  -14.1369  -21.4541   33.1689 H   0  0  0  0  0  0  0  0  0  0  0  0
  -14.3177  -20.7537   34.7613 H   0  0  0  0  0  0  0  0  0  0  0  0
  -12.3344  -22.0557   35.4491 H   0  0  0  0  0  0  0  0  0  0  0  0
  -12.3569  -23.5327   33.5500 H   0  0  0  0  0  0  0  0  0  0  0  0
  -11.3110  -19.9599   32.5715 H   0  0  0  0  0  0  0  0  0  0  0  0
  -11.3651  -20.1270   29.9880 H   0  0  0  0  0  0  0  0  0  0  0  0
  -11.9113  -21.6170   27.2516 H   0  0  0  0  0  0  0  0  0  0  0  0
   -9.9968  -23.6328   28.4336 H   0  0  0  0  0  0  0  0  0  0  0  0
  -12.4744  -24.8583   29.6105 H   0  0  0  0  0  0  0  0  0  0  0  0
  -11.5842  -25.8275   28.4909 H   0  0  0  0  0  0  0  0  0  0  0  0
  -10.1057  -24.5353   30.8483 H   0  0  0  0  0  0  0  0  0  0  0  0
   -9.5578  -25.7618   29.7318 H   0  0  0  0  0  0  0  0  0  0  0  0
  -10.3886  -26.3533   31.8749 H   0  0  0  0  0  0  0  0  0  0  0  0
   -9.6796  -23.3366   26.4951 H   0  0  0  0  0  0  0  0  0  0  0  0
  -10.3299  -24.8763   25.8789 H   0  0  0  0  0  0  0  0  0  0  0  0
  -10.9313  -23.3122   25.2596 H   0  0  0  0  0  0  0  0  0  0  0  0
  1  2  1  0
  2  3  1  0
  3  4  1  0
  4  5  2  0
  5  6  1  0
  6  7  1  0
  7  8  1  0
  8  9  1  0
  8 10  1  0
 10 11  1  0
 11 12  1  0
 12 13  1  0
 10 14  1  0
 14 15  1  0
  7 16  2  0
 16  4  1  0
  1 17  1  0
  1 18  1  0
  1 19  1  0
  2 20  1  0
  3 21  1  0
  5 22  1  0
  6 23  1  0
  9 24  1  0
 10 25  1  0
 11 26  1  0
 11 27  1  0
 12 28  1  0
 12 29  1  0
 13 30  1  0
 15 31  1  0
 15 32  1  0
 15 33  1  0
M  END
>  <Energy>  (260) 
12.222587512892371

>  <compound_id>  (260) 
3299

>  <target_id>  (260) 
1

>  <reference_id>  (260) 
49

>  <inspiration_ids>  (260) 
[107, 49]

>  <energy_score>  (260) 
-33.817475588135714

>  <distance_score>  (260) 
1.4791564456816613

>  <path>  (260) 
/opt/xchem-fragalysis-2/maxwin/BulkDock/SCRATCH/505734/C3299-P49/C3299-P49.minimised.mol

>  <scratch_subdir>  (260) 
/opt/xchem-fragalysis-2/maxwin/BulkDock/SCRATCH/505734/C3299-P49

>  <fragmenstein_runtime>  (260) 
2.213351011276245

>  <fragmenstein_outcome>  (260) 
too moved

>  <fragmenstein_mode>  (260) 
expansion

>  <fragmenstein_error>  (260) 


$$$$
C3301-P107
     RDKit          3D

 42 44  0  0  0  0  0  0  0  0999 V2000
  -11.9255  -24.9223   31.9662 O   0  0  0  0  0  0  0  0  0  0  0  0
  -11.7212  -23.9197   32.9786 S   0  0  0  0  0  0  0  0  0  0  0  0
  -11.2428  -24.3946   34.2334 O   0  0  0  0  0  0  0  0  0  0  0  0
  -10.6395  -22.8667   32.2938 N   0  0  0  0  0  0  0  0  0  0  0  0
  -11.1832  -22.1205   31.1333 C   0  0  0  0  0  0  0  0  0  0  0  0
  -12.0506  -22.8789   30.1350 C   0  0  0  0  0  0  0  0  0  0  0  0
  -11.6181  -24.0477   29.2554 C   0  0  0  0  0  0  0  0  0  0  0  0
  -10.5161  -24.8310   29.3282 C   0  0  0  0  0  0  0  0  0  0  0  0
   -9.7932  -25.0072   30.4694 O   0  0  0  0  0  0  0  0  0  0  0  0
  -10.0930  -25.7287   28.2724 C   0  0  0  0  0  0  0  0  0  0  0  0
  -10.9026  -25.9516   27.2342 C   0  0  0  0  0  0  0  0  0  0  0  0
  -10.6130  -26.9134   26.2804 O   0  0  0  0  0  0  0  0  0  0  0  0
  -12.1365  -25.3437   27.2668 N   0  0  0  0  0  0  0  0  0  0  0  0
  -13.2041  -25.5946   26.4597 C   0  0  0  0  0  0  0  0  0  0  0  0
  -14.2766  -25.2430   27.2223 C   0  0  0  0  0  0  0  0  0  0  0  0
  -13.8819  -24.5453   28.3360 N   0  0  0  0  0  0  0  0  0  0  0  0
  -12.5670  -24.5290   28.2922 C   0  0  0  0  0  0  0  0  0  0  0  0
  -13.0116  -22.8477   33.1212 N   0  0  0  0  0  0  0  0  0  0  0  0
  -12.8607  -21.5014   33.7242 C   0  0  0  0  0  0  0  0  0  0  0  0
  -14.2269  -20.7522   33.7697 C   0  0  0  0  0  0  0  0  0  0  0  0
  -15.4530  -21.4716   34.1015 N   0  0  0  0  0  0  0  0  0  0  0  0
  -15.4727  -22.7233   33.3355 C   0  0  0  0  0  0  0  0  0  0  0  0
  -14.2053  -23.5191   33.6264 C   0  0  0  0  0  0  0  0  0  0  0  0
   -9.8398  -23.4538   32.0511 H   0  0  0  0  0  0  0  0  0  0  0  0
  -10.4290  -21.5435   30.6169 H   0  0  0  0  0  0  0  0  0  0  0  0
  -11.8038  -21.3062   31.4743 H   0  0  0  0  0  0  0  0  0  0  0  0
  -12.3242  -22.1007   29.4052 H   0  0  0  0  0  0  0  0  0  0  0  0
  -13.0132  -23.1403   30.5910 H   0  0  0  0  0  0  0  0  0  0  0  0
  -10.4567  -25.3689   31.1074 H   0  0  0  0  0  0  0  0  0  0  0  0
   -9.1560  -26.2590   28.3685 H   0  0  0  0  0  0  0  0  0  0  0  0
  -11.4515  -27.3566   26.0254 H   0  0  0  0  0  0  0  0  0  0  0  0
  -13.1329  -26.1087   25.5141 H   0  0  0  0  0  0  0  0  0  0  0  0
  -15.3226  -25.4025   26.9904 H   0  0  0  0  0  0  0  0  0  0  0  0
  -12.1986  -20.8532   33.1601 H   0  0  0  0  0  0  0  0  0  0  0  0
  -12.3261  -21.5375   34.6580 H   0  0  0  0  0  0  0  0  0  0  0  0
  -14.1358  -19.8566   34.3935 H   0  0  0  0  0  0  0  0  0  0  0  0
  -14.4591  -20.4152   32.7621 H   0  0  0  0  0  0  0  0  0  0  0  0
  -15.4693  -21.7248   35.0837 H   0  0  0  0  0  0  0  0  0  0  0  0
  -16.3563  -23.2999   33.6286 H   0  0  0  0  0  0  0  0  0  0  0  0
  -15.5659  -22.4861   32.2701 H   0  0  0  0  0  0  0  0  0  0  0  0
  -14.1276  -23.7135   34.6925 H   0  0  0  0  0  0  0  0  0  0  0  0
  -14.2507  -24.4631   33.1468 H   0  0  0  0  0  0  0  0  0  0  0  0
  1  2  2  0
  2  3  2  0
  2  4  1  0
  4  5  1  0
  5  6  1  0
  6  7  1  0
  7  8  2  0
  8  9  1  0
  8 10  1  0
 10 11  2  0
 11 12  1  0
 11 13  1  0
 13 14  1  0
 14 15  2  0
 15 16  1  0
 16 17  2  0
  2 18  1  0
 18 19  1  0
 19 20  1  0
 20 21  1  0
 21 22  1  0
 22 23  1  0
 17  7  1  0
 23 18  1  0
 17 13  1  0
  4 24  1  0
  5 25  1  0
  5 26  1  0
  6 27  1  0
  6 28  1  0
  9 29  1  0
 10 30  1  0
 12 31  1  0
 14 32  1  0
 15 33  1  0
 19 34  1  0
 19 35  1  0
 20 36  1  0
 20 37  1  0
 21 38  1  0
 22 39  1  0
 22 40  1  0
 23 41  1  0
 23 42  1  0
M  END
>  <Energy>  (261) 
-49.75402215894001

>  <compound_id>  (261) 
3301

>  <target_id>  (261) 
1

>  <reference_id>  (261) 
107

>  <inspiration_ids>  (261) 
[107, 54]

>  <energy_score>  (261) 
-33.403624953555926

>  <distance_score>  (261) 
3.2030117077304077

>  <path>  (261) 
/opt/xchem-fragalysis-2/maxwin/BulkDock/SCRATCH/505734/C3301-P107/C3301-P107.minimised.mol

>  <scratch_subdir>  (261) 
/opt/xchem-fragalysis-2/maxwin/BulkDock/SCRATCH/505734/C3301-P107

>  <fragmenstein_runtime>  (261) 
4.737203359603882

>  <fragmenstein_outcome>  (261) 
too moved

>  <fragmenstein_mode>  (261) 
expansion

>  <fragmenstein_error>  (261) 


$$$$
C3301-P54
     RDKit          3D

 42 44  0  0  0  0  0  0  0  0999 V2000
  -10.1957  -23.5769   33.6756 O   0  0  0  0  0  0  0  0  0  0  0  0
   -9.4553  -22.3547   33.6924 S   0  0  0  0  0  0  0  0  0  0  0  0
   -8.5383  -22.0985   34.7690 O   0  0  0  0  0  0  0  0  0  0  0  0
   -8.5576  -22.4142   32.3120 N   0  0  0  0  0  0  0  0  0  0  0  0
   -8.9181  -23.4498   31.3203 C   0  0  0  0  0  0  0  0  0  0  0  0
  -10.2935  -23.3910   30.6877 C   0  0  0  0  0  0  0  0  0  0  0  0
  -10.4977  -24.3678   29.5630 C   0  0  0  0  0  0  0  0  0  0  0  0
   -9.9163  -24.1172   28.3631 C   0  0  0  0  0  0  0  0  0  0  0  0
   -9.5121  -25.2500   27.6648 O   0  0  0  0  0  0  0  0  0  0  0  0
  -10.7395  -23.3351   27.4199 C   0  0  0  0  0  0  0  0  0  0  0  0
  -12.0528  -23.6168   27.3675 C   0  0  0  0  0  0  0  0  0  0  0  0
  -12.9043  -23.1059   26.4110 O   0  0  0  0  0  0  0  0  0  0  0  0
  -12.5318  -24.5337   28.3141 N   0  0  0  0  0  0  0  0  0  0  0  0
  -13.7285  -25.1874   28.3820 C   0  0  0  0  0  0  0  0  0  0  0  0
  -13.6174  -26.0423   29.4541 C   0  0  0  0  0  0  0  0  0  0  0  0
  -12.4408  -25.8526   30.1331 N   0  0  0  0  0  0  0  0  0  0  0  0
  -11.7836  -24.9802   29.4052 C   0  0  0  0  0  0  0  0  0  0  0  0
  -10.4110  -20.9931   33.3667 N   0  0  0  0  0  0  0  0  0  0  0  0
  -11.3662  -20.6049   34.4362 C   0  0  0  0  0  0  0  0  0  0  0  0
  -12.3374  -19.4580   34.0416 C   0  0  0  0  0  0  0  0  0  0  0  0
  -12.9466  -19.5298   32.7036 N   0  0  0  0  0  0  0  0  0  0  0  0
  -11.8503  -19.7234   31.7688 C   0  0  0  0  0  0  0  0  0  0  0  0
  -11.0985  -20.9950   32.0735 C   0  0  0  0  0  0  0  0  0  0  0  0
   -7.5807  -22.4715   32.6127 H   0  0  0  0  0  0  0  0  0  0  0  0
   -8.7388  -24.4421   31.7485 H   0  0  0  0  0  0  0  0  0  0  0  0
   -8.2077  -23.3166   30.4980 H   0  0  0  0  0  0  0  0  0  0  0  0
  -10.4607  -22.4286   30.2074 H   0  0  0  0  0  0  0  0  0  0  0  0
  -11.0710  -23.5795   31.4263 H   0  0  0  0  0  0  0  0  0  0  0  0
   -8.5909  -25.4243   27.9323 H   0  0  0  0  0  0  0  0  0  0  0  0
  -10.2456  -22.6814   26.7195 H   0  0  0  0  0  0  0  0  0  0  0  0
  -12.5233  -22.2927   26.0229 H   0  0  0  0  0  0  0  0  0  0  0  0
  -14.5106  -25.0306   27.6526 H   0  0  0  0  0  0  0  0  0  0  0  0
  -14.3534  -26.7592   29.7972 H   0  0  0  0  0  0  0  0  0  0  0  0
  -11.9389  -21.4746   34.7295 H   0  0  0  0  0  0  0  0  0  0  0  0
  -10.7982  -20.2687   35.2942 H   0  0  0  0  0  0  0  0  0  0  0  0
  -13.1720  -19.4396   34.7476 H   0  0  0  0  0  0  0  0  0  0  0  0
  -11.8158  -18.4968   34.1293 H   0  0  0  0  0  0  0  0  0  0  0  0
  -13.5348  -20.3837   32.7070 H   0  0  0  0  0  0  0  0  0  0  0  0
  -11.1695  -18.8642   31.7863 H   0  0  0  0  0  0  0  0  0  0  0  0
  -12.2513  -19.8068   30.7545 H   0  0  0  0  0  0  0  0  0  0  0  0
  -10.3453  -21.0114   31.3049 H   0  0  0  0  0  0  0  0  0  0  0  0
  -11.7899  -21.8284   32.0032 H   0  0  0  0  0  0  0  0  0  0  0  0
  1  2  2  0
  2  3  2  0
  2  4  1  0
  4  5  1  0
  5  6  1  0
  6  7  1  0
  7  8  2  0
  8  9  1  0
  8 10  1  0
 10 11  2  0
 11 12  1  0
 11 13  1  0
 13 14  1  0
 14 15  2  0
 15 16  1  0
 16 17  2  0
  2 18  1  0
 18 19  1  0
 19 20  1  0
 20 21  1  0
 21 22  1  0
 22 23  1  0
 17  7  1  0
 23 18  1  0
 17 13  1  0
  4 24  1  0
  5 25  1  0
  5 26  1  0
  6 27  1  0
  6 28  1  0
  9 29  1  0
 10 30  1  0
 12 31  1  0
 14 32  1  0
 15 33  1  0
 19 34  1  0
 19 35  1  0
 20 36  1  0
 20 37  1  0
 21 38  1  0
 22 39  1  0
 22 40  1  0
 23 41  1  0
 23 42  1  0
M  END
>  <Energy>  (262) 
-11.177340996385755

>  <compound_id>  (262) 
3301

>  <target_id>  (262) 
1

>  <reference_id>  (262) 
54

>  <inspiration_ids>  (262) 
[107, 54]

>  <energy_score>  (262) 
5.173056208999029

>  <distance_score>  (262) 
2.331618436611233

>  <path>  (262) 
/opt/xchem-fragalysis-2/maxwin/BulkDock/SCRATCH/505734/C3301-P54/C3301-P54.minimised.mol

>  <scratch_subdir>  (262) 
/opt/xchem-fragalysis-2/maxwin/BulkDock/SCRATCH/505734/C3301-P54

>  <fragmenstein_runtime>  (262) 
3.997875690460205

>  <fragmenstein_outcome>  (262) 
too moved

>  <fragmenstein_mode>  (262) 
expansion

>  <fragmenstein_error>  (262) 


$$$$
C1388-P107
     RDKit          3D

 50 51  0  0  0  0  0  0  0  0999 V2000
  -11.6499  -21.9948   27.7002 C   0  0  0  0  0  0  0  0  0  0  0  0
  -11.4025  -21.2837   28.9965 C   0  0  0  0  0  0  0  0  0  0  0  0
  -11.3475  -21.9236   30.3266 C   0  0  0  0  0  0  0  0  0  0  0  0
  -11.5504  -23.2947   30.1040 N   0  0  0  0  0  0  0  0  0  0  0  0
  -10.6440  -24.2248   29.4080 C   0  0  0  0  0  0  0  0  0  0  0  0
  -11.1668  -25.4071   28.6037 C   0  0  0  0  0  0  0  0  0  0  0  0
  -10.1946  -25.8688   27.5609 C   0  0  0  0  0  0  0  0  0  0  0  0
  -10.8582  -26.7010   26.4767 C   0  0  0  0  0  0  0  0  0  0  0  0
  -11.6583  -25.9651   25.3821 C   0  0  0  0  0  0  0  0  0  0  0  0
  -11.3156  -24.4880   25.1818 C   0  0  0  0  0  0  0  0  0  0  0  0
  -13.1100  -26.1930   25.4172 N   0  0  0  0  0  0  0  0  0  0  0  0
  -12.7318  -24.8713   27.9371 S   0  0  0  0  0  0  0  0  0  0  0  0
  -13.3861  -24.6502   29.5280 C   0  0  0  0  0  0  0  0  0  0  0  0
  -14.7031  -24.5613   29.2773 F   0  0  0  0  0  0  0  0  0  0  0  0
  -12.9908  -25.8260   30.0408 F   0  0  0  0  0  0  0  0  0  0  0  0
  -12.8949  -23.6094   30.5072 C   0  0  0  0  0  0  0  0  0  0  0  0
  -13.0838  -23.8419   31.9815 N   0  0  0  0  0  0  0  0  0  0  0  0
  -11.9090  -24.4626   32.4753 C   0  0  0  0  0  0  0  0  0  0  0  0
  -10.9248  -23.6255   32.9401 C   0  0  0  0  0  0  0  0  0  0  0  0
   -9.5910  -24.0135   32.8748 C   0  0  0  0  0  0  0  0  0  0  0  0
   -9.2191  -25.2442   32.3808 C   0  0  0  0  0  0  0  0  0  0  0  0
  -10.2040  -26.1077   31.9645 C   0  0  0  0  0  0  0  0  0  0  0  0
  -11.5235  -25.7320   32.0738 C   0  0  0  0  0  0  0  0  0  0  0  0
  -12.6401  -22.4189   27.6812 H   0  0  0  0  0  0  0  0  0  0  0  0
  -10.9034  -22.7303   27.4818 H   0  0  0  0  0  0  0  0  0  0  0  0
  -11.5748  -21.3394   26.8455 H   0  0  0  0  0  0  0  0  0  0  0  0
  -12.1664  -20.5188   29.0460 H   0  0  0  0  0  0  0  0  0  0  0  0
  -10.4035  -20.9087   28.9151 H   0  0  0  0  0  0  0  0  0  0  0  0
  -10.4713  -21.6511   30.9082 H   0  0  0  0  0  0  0  0  0  0  0  0
  -12.1122  -21.4854   30.9768 H   0  0  0  0  0  0  0  0  0  0  0  0
  -10.0044  -23.6808   28.7131 H   0  0  0  0  0  0  0  0  0  0  0  0
   -9.9162  -24.6456   30.0893 H   0  0  0  0  0  0  0  0  0  0  0  0
  -11.2879  -26.2891   29.2396 H   0  0  0  0  0  0  0  0  0  0  0  0
   -9.4276  -26.4785   28.0555 H   0  0  0  0  0  0  0  0  0  0  0  0
   -9.6577  -25.0139   27.1623 H   0  0  0  0  0  0  0  0  0  0  0  0
  -10.0824  -27.2787   25.9656 H   0  0  0  0  0  0  0  0  0  0  0  0
  -11.4733  -27.4501   26.9829 H   0  0  0  0  0  0  0  0  0  0  0  0
  -11.4047  -26.5098   24.4951 H   0  0  0  0  0  0  0  0  0  0  0  0
  -10.9320  -24.0169   26.0678 H   0  0  0  0  0  0  0  0  0  0  0  0
  -12.1767  -23.8734   24.8979 H   0  0  0  0  0  0  0  0  0  0  0  0
  -10.5267  -24.3531   24.4438 H   0  0  0  0  0  0  0  0  0  0  0  0
  -13.2241  -27.1897   25.6329 H   0  0  0  0  0  0  0  0  0  0  0  0
  -13.4826  -26.0902   24.4761 H   0  0  0  0  0  0  0  0  0  0  0  0
  -13.5638  -22.7625   30.3064 H   0  0  0  0  0  0  0  0  0  0  0  0
  -13.9057  -24.4355   32.1016 H   0  0  0  0  0  0  0  0  0  0  0  0
  -11.2078  -22.6176   33.2187 H   0  0  0  0  0  0  0  0  0  0  0  0
   -8.8285  -23.3055   33.1677 H   0  0  0  0  0  0  0  0  0  0  0  0
   -8.1787  -25.5295   32.2911 H   0  0  0  0  0  0  0  0  0  0  0  0
   -9.9580  -27.0570   31.4976 H   0  0  0  0  0  0  0  0  0  0  0  0
  -12.2305  -26.4310   31.6850 H   0  0  0  0  0  0  0  0  0  0  0  0
  1  2  1  0
  2  3  1  0
  3  4  1  0
  4  5  1  0
  5  6  1  0
  6  7  1  0
  7  8  1  0
  8  9  1  0
  9 10  1  0
  9 11  1  0
  6 12  1  0
 12 13  1  0
 13 14  1  0
 13 15  1  0
 13 16  1  0
 16 17  1  0
 17 18  1  0
 18 19  2  0
 19 20  1  0
 20 21  2  0
 21 22  1  0
 22 23  2  0
 16  4  1  0
 23 18  1  0
  1 24  1  0
  1 25  1  0
  1 26  1  0
  2 27  1  0
  2 28  1  0
  3 29  1  0
  3 30  1  0
  5 31  1  0
  5 32  1  0
  6 33  1  0
  7 34  1  0
  7 35  1  0
  8 36  1  0
  8 37  1  0
  9 38  1  0
 10 39  1  0
 10 40  1  0
 10 41  1  0
 11 42  1  0
 11 43  1  0
 16 44  1  0
 17 45  1  0
 19 46  1  0
 20 47  1  0
 21 48  1  0
 22 49  1  0
 23 50  1  0
M  END
>  <Energy>  (263) 
258.37816143506325

>  <compound_id>  (263) 
1388

>  <target_id>  (263) 
1

>  <reference_id>  (263) 
107

>  <inspiration_ids>  (263) 
[107, 64]

>  <energy_score>  (263) 
92.45924839774204

>  <distance_score>  (263) 
2.261862727461856

>  <path>  (263) 
/opt/xchem-fragalysis-2/maxwin/BulkDock/SCRATCH/505734/C1388-P107/C1388-P107.minimised.mol

>  <scratch_subdir>  (263) 
/opt/xchem-fragalysis-2/maxwin/BulkDock/SCRATCH/505734/C1388-P107

>  <fragmenstein_runtime>  (263) 
6.986916542053223

>  <fragmenstein_outcome>  (263) 
too moved

>  <fragmenstein_mode>  (263) 
expansion

>  <fragmenstein_error>  (263) 


$$$$
C1388-P64
     RDKit          3D

 50 51  0  0  0  0  0  0  0  0999 V2000
  -10.7360  -21.8015   28.6326 C   0  0  0  0  0  0  0  0  0  0  0  0
  -11.0858  -21.2731   30.0236 C   0  0  0  0  0  0  0  0  0  0  0  0
  -10.8670  -21.7092   31.5250 C   0  0  0  0  0  0  0  0  0  0  0  0
  -11.0974  -23.0062   32.2121 N   0  0  0  0  0  0  0  0  0  0  0  0
  -10.6513  -24.1801   31.4518 C   0  0  0  0  0  0  0  0  0  0  0  0
  -11.2063  -24.4195   30.0171 C   0  0  0  0  0  0  0  0  0  0  0  0
  -10.2849  -24.9022   28.8262 C   0  0  0  0  0  0  0  0  0  0  0  0
  -10.8152  -24.7372   27.3553 C   0  0  0  0  0  0  0  0  0  0  0  0
  -11.5567  -25.8815   26.6412 C   0  0  0  0  0  0  0  0  0  0  0  0
  -12.9357  -25.4494   26.1451 C   0  0  0  0  0  0  0  0  0  0  0  0
  -11.6832  -27.0440   27.4952 N   0  0  0  0  0  0  0  0  0  0  0  0
  -12.7179  -23.3481   29.5640 S   0  0  0  0  0  0  0  0  0  0  0  0
  -13.3746  -22.6707   31.4725 C   0  0  0  0  0  0  0  0  0  0  0  0
  -14.7270  -22.8002   31.5020 F   0  0  0  0  0  0  0  0  0  0  0  0
  -13.3300  -21.3449   31.4821 F   0  0  0  0  0  0  0  0  0  0  0  0
  -12.5271  -23.0730   32.7011 C   0  0  0  0  0  0  0  0  0  0  0  0
  -13.1321  -24.0973   33.6018 N   0  0  0  0  0  0  0  0  0  0  0  0
  -14.5360  -23.9763   33.8689 C   0  0  0  0  0  0  0  0  0  0  0  0
  -15.2629  -25.1378   34.1622 C   0  0  0  0  0  0  0  0  0  0  0  0
  -16.6320  -25.1005   34.4503 C   0  0  0  0  0  0  0  0  0  0  0  0
  -17.3049  -23.8845   34.4838 C   0  0  0  0  0  0  0  0  0  0  0  0
  -16.6005  -22.7089   34.2517 C   0  0  0  0  0  0  0  0  0  0  0  0
  -15.2275  -22.7564   33.9717 C   0  0  0  0  0  0  0  0  0  0  0  0
  -11.5756  -21.7418   27.9383 H   0  0  0  0  0  0  0  0  0  0  0  0
   -9.9938  -21.2251   28.1403 H   0  0  0  0  0  0  0  0  0  0  0  0
  -10.2895  -22.7536   28.5472 H   0  0  0  0  0  0  0  0  0  0  0  0
  -10.4805  -20.4213   30.0329 H   0  0  0  0  0  0  0  0  0  0  0  0
  -12.0737  -20.8822   29.8701 H   0  0  0  0  0  0  0  0  0  0  0  0
   -9.8867  -21.3726   31.8160 H   0  0  0  0  0  0  0  0  0  0  0  0
  -11.3943  -20.9516   32.1194 H   0  0  0  0  0  0  0  0  0  0  0  0
   -9.5601  -24.2262   31.4381 H   0  0  0  0  0  0  0  0  0  0  0  0
  -10.8791  -25.0535   32.0766 H   0  0  0  0  0  0  0  0  0  0  0  0
  -11.5398  -25.4115   30.1816 H   0  0  0  0  0  0  0  0  0  0  0  0
   -9.9784  -25.9417   29.0041 H   0  0  0  0  0  0  0  0  0  0  0  0
   -9.3221  -24.4004   28.8834 H   0  0  0  0  0  0  0  0  0  0  0  0
  -11.4098  -23.8332   27.2293 H   0  0  0  0  0  0  0  0  0  0  0  0
   -9.9249  -24.5333   26.7578 H   0  0  0  0  0  0  0  0  0  0  0  0
  -10.9888  -26.1777   25.7529 H   0  0  0  0  0  0  0  0  0  0  0  0
  -13.6070  -25.1804   26.9633 H   0  0  0  0  0  0  0  0  0  0  0  0
  -13.4135  -26.2501   25.5704 H   0  0  0  0  0  0  0  0  0  0  0  0
  -12.8530  -24.5757   25.4904 H   0  0  0  0  0  0  0  0  0  0  0  0
  -10.7559  -27.4486   27.5972 H   0  0  0  0  0  0  0  0  0  0  0  0
  -11.8894  -26.6795   28.4168 H   0  0  0  0  0  0  0  0  0  0  0  0
  -12.5519  -22.2023   33.3725 H   0  0  0  0  0  0  0  0  0  0  0  0
  -12.6733  -24.1279   34.5196 H   0  0  0  0  0  0  0  0  0  0  0  0
  -14.7641  -26.0975   34.1511 H   0  0  0  0  0  0  0  0  0  0  0  0
  -17.1611  -26.0275   34.6509 H   0  0  0  0  0  0  0  0  0  0  0  0
  -18.3667  -23.8553   34.7092 H   0  0  0  0  0  0  0  0  0  0  0  0
  -17.1091  -21.7509   34.3035 H   0  0  0  0  0  0  0  0  0  0  0  0
  -14.7164  -21.8115   33.8234 H   0  0  0  0  0  0  0  0  0  0  0  0
  1  2  1  0
  2  3  1  0
  3  4  1  0
  4  5  1  0
  5  6  1  0
  6  7  1  0
  7  8  1  0
  8  9  1  0
  9 10  1  0
  9 11  1  0
  6 12  1  0
 12 13  1  0
 13 14  1  0
 13 15  1  0
 13 16  1  0
 16 17  1  0
 17 18  1  0
 18 19  2  0
 19 20  1  0
 20 21  2  0
 21 22  1  0
 22 23  2  0
 16  4  1  0
 23 18  1  0
  1 24  1  0
  1 25  1  0
  1 26  1  0
  2 27  1  0
  2 28  1  0
  3 29  1  0
  3 30  1  0
  5 31  1  0
  5 32  1  0
  6 33  1  0
  7 34  1  0
  7 35  1  0
  8 36  1  0
  8 37  1  0
  9 38  1  0
 10 39  1  0
 10 40  1  0
 10 41  1  0
 11 42  1  0
 11 43  1  0
 16 44  1  0
 17 45  1  0
 19 46  1  0
 20 47  1  0
 21 48  1  0
 22 49  1  0
 23 50  1  0
M  END
>  <Energy>  (264) 
276.89917365889005

>  <compound_id>  (264) 
1388

>  <target_id>  (264) 
1

>  <reference_id>  (264) 
64

>  <inspiration_ids>  (264) 
[107, 64]

>  <energy_score>  (264) 
110.98026062156947

>  <distance_score>  (264) 
1.5115858574078016

>  <path>  (264) 
/opt/xchem-fragalysis-2/maxwin/BulkDock/SCRATCH/505734/C1388-P64/C1388-P64.minimised.mol

>  <scratch_subdir>  (264) 
/opt/xchem-fragalysis-2/maxwin/BulkDock/SCRATCH/505734/C1388-P64

>  <fragmenstein_runtime>  (264) 
7.173217296600342

>  <fragmenstein_outcome>  (264) 
too moved

>  <fragmenstein_mode>  (264) 
expansion

>  <fragmenstein_error>  (264) 


$$$$
C3302-P107
     RDKit          3D

 28 29  0  0  0  0  0  0  0  0999 V2000
  -12.4767  -24.1015   26.4566 N   0  0  0  0  0  0  0  0  0  0  0  0
  -12.5246  -23.4622   27.7138 C   0  0  0  0  0  0  0  0  0  0  0  0
  -11.7018  -22.3979   28.0685 C   0  0  0  0  0  0  0  0  0  0  0  0
  -11.5223  -22.0083   29.4108 C   0  0  0  0  0  0  0  0  0  0  0  0
  -12.1397  -22.7077   30.4256 C   0  0  0  0  0  0  0  0  0  0  0  0
  -11.6266  -22.6362   32.1147 S   0  0  0  0  0  0  0  0  0  0  0  0
  -10.7550  -24.2450   32.3637 C   0  0  0  0  0  0  0  0  0  0  0  0
  -11.2966  -24.8391   33.4642 F   0  0  0  0  0  0  0  0  0  0  0  0
   -9.4656  -23.9816   32.7140 F   0  0  0  0  0  0  0  0  0  0  0  0
  -10.7738  -25.2080   31.2282 C   0  0  0  0  0  0  0  0  0  0  0  0
  -11.7520  -26.0777   30.9936 C   0  0  0  0  0  0  0  0  0  0  0  0
  -11.7449  -26.7290   29.6660 C   0  0  0  0  0  0  0  0  0  0  0  0
  -11.0513  -26.3645   28.6371 N   0  0  0  0  0  0  0  0  0  0  0  0
  -10.1492  -25.3644   28.8958 C   0  0  0  0  0  0  0  0  0  0  0  0
   -9.7854  -24.5532   28.0549 O   0  0  0  0  0  0  0  0  0  0  0  0
   -9.6322  -25.4017   30.3240 C   0  0  0  0  0  0  0  0  0  0  0  0
  -13.1146  -23.6065   30.0517 C   0  0  0  0  0  0  0  0  0  0  0  0
  -13.2535  -24.0390   28.7315 C   0  0  0  0  0  0  0  0  0  0  0  0
  -11.7146  -24.7867   26.4913 H   0  0  0  0  0  0  0  0  0  0  0  0
  -12.2412  -23.4139   25.7378 H   0  0  0  0  0  0  0  0  0  0  0  0
  -11.1483  -21.8778   27.3021 H   0  0  0  0  0  0  0  0  0  0  0  0
  -10.8157  -21.2208   29.6324 H   0  0  0  0  0  0  0  0  0  0  0  0
  -12.6011  -26.0877   31.6319 H   0  0  0  0  0  0  0  0  0  0  0  0
  -12.4074  -27.5952   29.5488 H   0  0  0  0  0  0  0  0  0  0  0  0
   -8.8141  -24.7489   30.5074 H   0  0  0  0  0  0  0  0  0  0  0  0
   -9.2573  -26.4071   30.5351 H   0  0  0  0  0  0  0  0  0  0  0  0
  -13.6727  -24.0709   30.8424 H   0  0  0  0  0  0  0  0  0  0  0  0
  -13.9175  -24.8498   28.4762 H   0  0  0  0  0  0  0  0  0  0  0  0
  1  2  1  0
  2  3  2  0
  3  4  1  0
  4  5  2  0
  5  6  1  0
  6  7  1  0
  7  8  1  0
  7  9  1  0
  7 10  1  0
 10 11  2  0
 11 12  1  0
 12 13  2  0
 13 14  1  0
 14 15  2  0
 14 16  1  0
  5 17  1  0
 17 18  2  0
 18  2  1  0
 16 10  1  0
  1 19  1  0
  1 20  1  0
  3 21  1  0
  4 22  1  0
 11 23  1  0
 12 24  1  0
 16 25  1  0
 16 26  1  0
 17 27  1  0
 18 28  1  0
M  END
>  <Energy>  (265) 
40.606155238636326

>  <compound_id>  (265) 
3302

>  <target_id>  (265) 
1

>  <reference_id>  (265) 
107

>  <inspiration_ids>  (265) 
[107, 75]

>  <energy_score>  (265) 
3.756412313168454

>  <distance_score>  (265) 
2.5619977524413238

>  <path>  (265) 
/opt/xchem-fragalysis-2/maxwin/BulkDock/SCRATCH/505734/C3302-P107/C3302-P107.minimised.mol

>  <scratch_subdir>  (265) 
/opt/xchem-fragalysis-2/maxwin/BulkDock/SCRATCH/505734/C3302-P107

>  <fragmenstein_runtime>  (265) 
2.2125589847564697

>  <fragmenstein_outcome>  (265) 
too moved

>  <fragmenstein_mode>  (265) 
expansion

>  <fragmenstein_error>  (265) 


$$$$
C3302-P75
     RDKit          3D

 28 29  0  0  0  0  0  0  0  0999 V2000
  -12.4268  -21.5929   29.6793 N   0  0  0  0  0  0  0  0  0  0  0  0
  -12.2672  -21.9593   31.0253 C   0  0  0  0  0  0  0  0  0  0  0  0
  -11.0086  -21.8965   31.5515 C   0  0  0  0  0  0  0  0  0  0  0  0
  -10.5712  -22.9841   32.2724 C   0  0  0  0  0  0  0  0  0  0  0  0
  -11.4350  -23.9860   32.6090 C   0  0  0  0  0  0  0  0  0  0  0  0
  -10.7333  -25.5792   32.8310 S   0  0  0  0  0  0  0  0  0  0  0  0
   -9.7690  -25.9125   31.2363 C   0  0  0  0  0  0  0  0  0  0  0  0
   -8.6155  -25.1981   31.3267 F   0  0  0  0  0  0  0  0  0  0  0  0
   -9.3913  -27.2231   31.3070 F   0  0  0  0  0  0  0  0  0  0  0  0
  -10.3458  -25.7117   29.8374 C   0  0  0  0  0  0  0  0  0  0  0  0
  -10.8524  -24.5902   29.3197 C   0  0  0  0  0  0  0  0  0  0  0  0
  -11.2329  -24.5276   27.8996 C   0  0  0  0  0  0  0  0  0  0  0  0
  -11.3819  -25.5359   27.1162 N   0  0  0  0  0  0  0  0  0  0  0  0
  -11.1739  -26.7679   27.6898 C   0  0  0  0  0  0  0  0  0  0  0  0
  -11.6881  -27.7883   27.2430 O   0  0  0  0  0  0  0  0  0  0  0  0
  -10.1768  -26.8359   28.8445 C   0  0  0  0  0  0  0  0  0  0  0  0
  -12.7864  -23.6967   32.5921 C   0  0  0  0  0  0  0  0  0  0  0  0
  -13.2186  -22.6963   31.7130 C   0  0  0  0  0  0  0  0  0  0  0  0
  -11.6935  -20.9903   29.3018 H   0  0  0  0  0  0  0  0  0  0  0  0
  -12.5007  -22.4206   29.0927 H   0  0  0  0  0  0  0  0  0  0  0  0
  -10.3054  -21.1657   31.1992 H   0  0  0  0  0  0  0  0  0  0  0  0
   -9.5241  -23.1262   32.5061 H   0  0  0  0  0  0  0  0  0  0  0  0
  -10.9610  -23.6963   29.8735 H   0  0  0  0  0  0  0  0  0  0  0  0
  -11.3926  -23.5151   27.4943 H   0  0  0  0  0  0  0  0  0  0  0  0
  -10.2957  -27.8037   29.3184 H   0  0  0  0  0  0  0  0  0  0  0  0
   -9.1878  -26.7977   28.3845 H   0  0  0  0  0  0  0  0  0  0  0  0
  -13.5103  -24.4018   32.9943 H   0  0  0  0  0  0  0  0  0  0  0  0
  -14.2635  -22.6809   31.4204 H   0  0  0  0  0  0  0  0  0  0  0  0
  1  2  1  0
  2  3  2  0
  3  4  1  0
  4  5  2  0
  5  6  1  0
  6  7  1  0
  7  8  1  0
  7  9  1  0
  7 10  1  0
 10 11  2  0
 11 12  1  0
 12 13  2  0
 13 14  1  0
 14 15  2  0
 14 16  1  0
  5 17  1  0
 17 18  2  0
 18  2  1  0
 16 10  1  0
  1 19  1  0
  1 20  1  0
  3 21  1  0
  4 22  1  0
 11 23  1  0
 12 24  1  0
 16 25  1  0
 16 26  1  0
 17 27  1  0
 18 28  1  0
M  END
>  <Energy>  (266) 
60.424986395967473

>  <compound_id>  (266) 
3302

>  <target_id>  (266) 
1

>  <reference_id>  (266) 
75

>  <inspiration_ids>  (266) 
[107, 75]

>  <energy_score>  (266) 
25.29797644408154

>  <distance_score>  (266) 
3.3962674020903654

>  <path>  (266) 
/opt/xchem-fragalysis-2/maxwin/BulkDock/SCRATCH/505734/C3302-P75/C3302-P75.minimised.mol

>  <scratch_subdir>  (266) 
/opt/xchem-fragalysis-2/maxwin/BulkDock/SCRATCH/505734/C3302-P75

>  <fragmenstein_runtime>  (266) 
3.759467840194702

>  <fragmenstein_outcome>  (266) 
too moved

>  <fragmenstein_mode>  (266) 
expansion

>  <fragmenstein_error>  (266) 


$$$$
C2022-P107
     RDKit          3D

 40 43  0  0  0  0  0  0  0  0999 V2000
  -15.5664  -16.4644   28.3188 N   0  0  0  0  0  0  0  0  0  0  0  0
  -15.3766  -16.6557   29.7474 C   0  0  0  0  0  0  0  0  0  0  0  0
  -13.7073  -16.1335   30.8059 C   0  0  0  0  0  0  0  0  0  0  0  0
  -13.2679  -16.9177   32.5818 C   0  0  0  0  0  0  0  0  0  0  0  0
  -14.0337  -18.5457   33.4159 C   0  0  0  0  0  0  0  0  0  0  0  0
  -13.7517  -19.6431   34.7051 S   0  0  0  0  0  0  0  0  0  0  0  0
  -13.8507  -21.4355   33.7179 C   0  0  0  0  0  0  0  0  0  0  0  0
  -14.9283  -21.4538   32.9003 F   0  0  0  0  0  0  0  0  0  0  0  0
  -12.6383  -21.6991   32.9767 N   0  0  0  0  0  0  0  0  0  0  0  0
  -11.6158  -20.8281   32.8640 C   0  0  0  0  0  0  0  0  0  0  0  0
  -10.6797  -21.4919   32.1433 C   0  0  0  0  0  0  0  0  0  0  0  0
  -10.9146  -22.8062   32.1817 N   0  0  0  0  0  0  0  0  0  0  0  0
  -12.2277  -22.8164   32.2916 C   0  0  0  0  0  0  0  0  0  0  0  0
  -12.8932  -23.6147   31.1563 C   0  0  0  0  0  0  0  0  0  0  0  0
  -13.7944  -23.0422   30.3586 N   0  0  0  0  0  0  0  0  0  0  0  0
  -13.6603  -23.7565   29.1705 O   0  0  0  0  0  0  0  0  0  0  0  0
  -12.6631  -24.6543   29.3620 C   0  0  0  0  0  0  0  0  0  0  0  0
  -12.1233  -25.5597   28.2415 C   0  0  0  0  0  0  0  0  0  0  0  0
  -11.4002  -26.8298   28.7227 C   0  0  0  0  0  0  0  0  0  0  0  0
  -10.0780  -26.0444   28.6505 C   0  0  0  0  0  0  0  0  0  0  0  0
  -10.7743  -25.0753   27.6802 C   0  0  0  0  0  0  0  0  0  0  0  0
  -12.1865  -24.6413   30.5749 N   0  0  0  0  0  0  0  0  0  0  0  0
  -15.4279  -19.1512   32.2257 C   0  0  0  0  0  0  0  0  0  0  0  0
  -16.0167  -18.4074   30.5337 C   0  0  0  0  0  0  0  0  0  0  0  0
  -14.9332  -17.1328   27.8925 H   0  0  0  0  0  0  0  0  0  0  0  0
  -16.5165  -16.6690   28.0902 H   0  0  0  0  0  0  0  0  0  0  0  0
  -12.9591  -15.4278   30.4567 H   0  0  0  0  0  0  0  0  0  0  0  0
  -12.6880  -16.2498   33.2409 H   0  0  0  0  0  0  0  0  0  0  0  0
  -14.0070  -22.2520   34.4121 H   0  0  0  0  0  0  0  0  0  0  0  0
  -11.5555  -19.8481   33.3092 H   0  0  0  0  0  0  0  0  0  0  0  0
   -9.7449  -21.0616   31.8965 H   0  0  0  0  0  0  0  0  0  0  0  0
  -12.8846  -25.7466   27.4764 H   0  0  0  0  0  0  0  0  0  0  0  0
  -11.6666  -27.2177   29.7097 H   0  0  0  0  0  0  0  0  0  0  0  0
  -11.4738  -27.6453   27.9987 H   0  0  0  0  0  0  0  0  0  0  0  0
   -9.2315  -26.5867   28.2289 H   0  0  0  0  0  0  0  0  0  0  0  0
   -9.7755  -25.5857   29.5980 H   0  0  0  0  0  0  0  0  0  0  0  0
  -10.5273  -24.0181   27.8127 H   0  0  0  0  0  0  0  0  0  0  0  0
  -10.6542  -25.3313   26.6232 H   0  0  0  0  0  0  0  0  0  0  0  0
  -16.1250  -19.8994   32.6200 H   0  0  0  0  0  0  0  0  0  0  0  0
  -17.0341  -18.7867   30.3884 H   0  0  0  0  0  0  0  0  0  0  0  0
  1  2  1  0
  2  3  2  0
  3  4  1  0
  4  5  2  0
  5  6  1  0
  6  7  1  0
  7  8  1  0
  7  9  1  0
  9 10  1  0
 10 11  2  0
 11 12  1  0
 12 13  2  0
 13 14  1  0
 14 15  2  0
 15 16  1  0
 16 17  1  0
 17 18  1  0
 18 19  1  0
 19 20  1  0
 20 21  1  0
 17 22  2  0
  5 23  1  0
 23 24  2  0
 24  2  1  0
 13  9  1  0
 22 14  1  0
 21 18  1  0
  1 25  1  0
  1 26  1  0
  3 27  1  0
  4 28  1  0
  7 29  1  0
 10 30  1  0
 11 31  1  0
 18 32  1  0
 19 33  1  0
 19 34  1  0
 20 35  1  0
 20 36  1  0
 21 37  1  0
 21 38  1  0
 23 39  1  0
 24 40  1  0
M  END
>  <Energy>  (267) 
732.75332883205351

>  <compound_id>  (267) 
2022

>  <target_id>  (267) 
1

>  <reference_id>  (267) 
107

>  <inspiration_ids>  (267) 
[107, 94]

>  <energy_score>  (267) 
624.7680569240637

>  <distance_score>  (267) 
3.069106099848957

>  <path>  (267) 
/opt/xchem-fragalysis-2/maxwin/BulkDock/SCRATCH/505734/C2022-P107/C2022-P107.minimised.mol

>  <scratch_subdir>  (267) 
/opt/xchem-fragalysis-2/maxwin/BulkDock/SCRATCH/505734/C2022-P107

>  <fragmenstein_runtime>  (267) 
7.06191611289978

>  <fragmenstein_outcome>  (267) 
too moved

>  <fragmenstein_mode>  (267) 
expansion

>  <fragmenstein_error>  (267) 


$$$$
C2022-P94
     RDKit          3D

 40 43  0  0  0  0  0  0  0  0999 V2000
  -15.6754  -16.6740   28.2647 N   0  0  0  0  0  0  0  0  0  0  0  0
  -15.4729  -16.7731   29.6934 C   0  0  0  0  0  0  0  0  0  0  0  0
  -13.7984  -16.1144   30.6556 C   0  0  0  0  0  0  0  0  0  0  0  0
  -13.2708  -16.7405   32.4500 C   0  0  0  0  0  0  0  0  0  0  0  0
  -13.8530  -18.3092   33.4539 C   0  0  0  0  0  0  0  0  0  0  0  0
  -13.2329  -19.0501   34.8985 S   0  0  0  0  0  0  0  0  0  0  0  0
  -12.6060  -20.6515   34.1519 C   0  0  0  0  0  0  0  0  0  0  0  0
  -11.6473  -20.3278   33.2366 F   0  0  0  0  0  0  0  0  0  0  0  0
  -13.6421  -21.4981   33.5480 N   0  0  0  0  0  0  0  0  0  0  0  0
  -14.8787  -21.8702   34.0121 C   0  0  0  0  0  0  0  0  0  0  0  0
  -15.6262  -22.1038   32.8809 C   0  0  0  0  0  0  0  0  0  0  0  0
  -14.8919  -21.7997   31.7674 N   0  0  0  0  0  0  0  0  0  0  0  0
  -13.6492  -21.8254   32.2196 C   0  0  0  0  0  0  0  0  0  0  0  0
  -12.4339  -22.3059   31.3870 C   0  0  0  0  0  0  0  0  0  0  0  0
  -12.4620  -22.3826   30.0521 N   0  0  0  0  0  0  0  0  0  0  0  0
  -11.5665  -23.4005   29.7849 O   0  0  0  0  0  0  0  0  0  0  0  0
  -11.0704  -23.7831   30.9976 C   0  0  0  0  0  0  0  0  0  0  0  0
  -10.2723  -25.0834   31.1859 C   0  0  0  0  0  0  0  0  0  0  0  0
  -10.9420  -25.9772   32.2272 C   0  0  0  0  0  0  0  0  0  0  0  0
  -10.8282  -27.1476   31.2490 C   0  0  0  0  0  0  0  0  0  0  0  0
  -10.6002  -26.1459   30.1167 C   0  0  0  0  0  0  0  0  0  0  0  0
  -11.4150  -22.9880   31.9852 N   0  0  0  0  0  0  0  0  0  0  0  0
  -15.3156  -19.0904   32.3982 C   0  0  0  0  0  0  0  0  0  0  0  0
  -16.0420  -18.4583   30.6763 C   0  0  0  0  0  0  0  0  0  0  0  0
  -16.6130  -16.9229   28.0664 H   0  0  0  0  0  0  0  0  0  0  0  0
  -15.5839  -15.7195   27.9864 H   0  0  0  0  0  0  0  0  0  0  0  0
  -12.9967  -15.5137   30.2522 H   0  0  0  0  0  0  0  0  0  0  0  0
  -12.6355  -16.0158   32.9851 H   0  0  0  0  0  0  0  0  0  0  0  0
  -12.0933  -21.2325   34.9026 H   0  0  0  0  0  0  0  0  0  0  0  0
  -15.1829  -21.8812   35.0404 H   0  0  0  0  0  0  0  0  0  0  0  0
  -16.6689  -22.3838   32.8119 H   0  0  0  0  0  0  0  0  0  0  0  0
   -9.2027  -24.9456   31.3650 H   0  0  0  0  0  0  0  0  0  0  0  0
  -10.4180  -26.0575   33.1806 H   0  0  0  0  0  0  0  0  0  0  0  0
  -11.9687  -25.6782   32.4393 H   0  0  0  0  0  0  0  0  0  0  0  0
   -9.9641  -27.7879   31.3997 H   0  0  0  0  0  0  0  0  0  0  0  0
  -11.7130  -27.7800   31.1625 H   0  0  0  0  0  0  0  0  0  0  0  0
   -9.7782  -26.3763   29.4348 H   0  0  0  0  0  0  0  0  0  0  0  0
  -11.4952  -25.9654   29.5129 H   0  0  0  0  0  0  0  0  0  0  0  0
  -15.9795  -19.7655   32.9353 H   0  0  0  0  0  0  0  0  0  0  0  0
  -17.0547  -18.8688   30.5413 H   0  0  0  0  0  0  0  0  0  0  0  0
  1  2  1  0
  2  3  2  0
  3  4  1  0
  4  5  2  0
  5  6  1  0
  6  7  1  0
  7  8  1  0
  7  9  1  0
  9 10  1  0
 10 11  2  0
 11 12  1  0
 12 13  2  0
 13 14  1  0
 14 15  2  0
 15 16  1  0
 16 17  1  0
 17 18  1  0
 18 19  1  0
 19 20  1  0
 20 21  1  0
 17 22  2  0
  5 23  1  0
 23 24  2  0
 24  2  1  0
 13  9  1  0
 22 14  1  0
 21 18  1  0
  1 25  1  0
  1 26  1  0
  3 27  1  0
  4 28  1  0
  7 29  1  0
 10 30  1  0
 11 31  1  0
 18 32  1  0
 19 33  1  0
 19 34  1  0
 20 35  1  0
 20 36  1  0
 21 37  1  0
 21 38  1  0
 23 39  1  0
 24 40  1  0
M  END
>  <Energy>  (268) 
708.46432981851456

>  <compound_id>  (268) 
2022

>  <target_id>  (268) 
1

>  <reference_id>  (268) 
94

>  <inspiration_ids>  (268) 
[107, 94]

>  <energy_score>  (268) 
600.4790579105204

>  <distance_score>  (268) 
2.6452840314349855

>  <path>  (268) 
/opt/xchem-fragalysis-2/maxwin/BulkDock/SCRATCH/505734/C2022-P94/C2022-P94.minimised.mol

>  <scratch_subdir>  (268) 
/opt/xchem-fragalysis-2/maxwin/BulkDock/SCRATCH/505734/C2022-P94

>  <fragmenstein_runtime>  (268) 
6.402769565582275

>  <fragmenstein_outcome>  (268) 
too moved

>  <fragmenstein_mode>  (268) 
expansion

>  <fragmenstein_error>  (268) 


$$$$
C3305-P107
     RDKit          3D

 38 39  0  0  0  0  0  0  0  0999 V2000
  -13.7376  -21.7636   31.6432 C   0  0  0  0  0  0  0  0  0  0  0  0
  -12.3510  -22.0641   30.4420 S   0  0  0  0  0  0  0  0  0  0  0  0
  -11.1199  -22.0152   31.1935 O   0  0  0  0  0  0  0  0  0  0  0  0
  -12.4246  -21.2424   29.2625 O   0  0  0  0  0  0  0  0  0  0  0  0
  -12.8341  -23.6998   30.0677 C   0  0  0  0  0  0  0  0  0  0  0  0
  -12.6246  -24.3772   31.4018 C   0  0  0  0  0  0  0  0  0  0  0  0
  -11.6666  -25.4512   31.4186 C   0  0  0  0  0  0  0  0  0  0  0  0
  -11.0192  -25.8809   30.3365 C   0  0  0  0  0  0  0  0  0  0  0  0
   -9.7951  -26.6429   30.6462 C   0  0  0  0  0  0  0  0  0  0  0  0
   -8.9611  -25.6549   31.4995 C   0  0  0  0  0  0  0  0  0  0  0  0
   -9.6862  -25.0547   32.7242 C   0  0  0  0  0  0  0  0  0  0  0  0
   -9.8109  -23.6113   32.7174 N   0  0  0  0  0  0  0  0  0  0  0  0
  -11.0492  -25.6649   32.7663 C   0  0  0  0  0  0  0  0  0  0  0  0
  -11.1359  -25.2905   28.9771 C   0  0  0  0  0  0  0  0  0  0  0  0
  -12.3538  -24.4052   28.7990 C   0  0  0  0  0  0  0  0  0  0  0  0
  -12.2304  -23.5123   27.6947 O   0  0  0  0  0  0  0  0  0  0  0  0
  -11.9131  -24.1234   26.4501 C   0  0  0  0  0  0  0  0  0  0  0  0
  -12.7513  -25.1767   26.2699 F   0  0  0  0  0  0  0  0  0  0  0  0
  -14.0855  -22.6660   32.1367 H   0  0  0  0  0  0  0  0  0  0  0  0
  -13.3604  -21.1414   32.4524 H   0  0  0  0  0  0  0  0  0  0  0  0
  -14.6106  -21.3632   31.1260 H   0  0  0  0  0  0  0  0  0  0  0  0
  -13.9083  -23.5738   29.8933 H   0  0  0  0  0  0  0  0  0  0  0  0
  -13.5191  -24.6556   31.9013 H   0  0  0  0  0  0  0  0  0  0  0  0
  -12.2849  -23.6863   32.1775 H   0  0  0  0  0  0  0  0  0  0  0  0
  -10.0210  -27.5831   31.1569 H   0  0  0  0  0  0  0  0  0  0  0  0
   -9.3561  -26.9316   29.6935 H   0  0  0  0  0  0  0  0  0  0  0  0
   -8.6999  -24.8645   30.8155 H   0  0  0  0  0  0  0  0  0  0  0  0
   -8.0403  -26.0961   31.8546 H   0  0  0  0  0  0  0  0  0  0  0  0
   -9.1575  -25.3312   33.6392 H   0  0  0  0  0  0  0  0  0  0  0  0
  -10.1486  -23.2703   31.8151 H   0  0  0  0  0  0  0  0  0  0  0  0
  -10.5633  -23.3056   33.3305 H   0  0  0  0  0  0  0  0  0  0  0  0
  -11.6383  -25.2453   33.5903 H   0  0  0  0  0  0  0  0  0  0  0  0
  -10.8829  -26.7268   32.9251 H   0  0  0  0  0  0  0  0  0  0  0  0
  -11.1639  -26.1011   28.2374 H   0  0  0  0  0  0  0  0  0  0  0  0
  -10.2286  -24.7132   28.7567 H   0  0  0  0  0  0  0  0  0  0  0  0
  -13.1730  -25.0900   28.5393 H   0  0  0  0  0  0  0  0  0  0  0  0
  -12.0806  -23.4068   25.6439 H   0  0  0  0  0  0  0  0  0  0  0  0
  -10.8773  -24.4700   26.4246 H   0  0  0  0  0  0  0  0  0  0  0  0
  1  2  1  0
  2  3  2  0
  2  4  2  0
  2  5  1  0
  5  6  1  0
  6  7  1  0
  7  8  2  0
  8  9  1  0
  9 10  1  0
 10 11  1  0
 11 12  1  0
 11 13  1  0
  8 14  1  0
 14 15  1  0
 15 16  1  0
 16 17  1  0
 17 18  1  0
 15  5  1  0
 13  7  1  0
  1 19  1  0
  1 20  1  0
  1 21  1  0
  5 22  1  0
  6 23  1  0
  6 24  1  0
  9 25  1  0
  9 26  1  0
 10 27  1  0
 10 28  1  0
 11 29  1  0
 12 30  1  0
 12 31  1  0
 13 32  1  0
 13 33  1  0
 14 34  1  0
 14 35  1  0
 15 36  1  0
 17 37  1  0
 17 38  1  0
M  END
>  <Energy>  (269) 
86.50911969834992

>  <compound_id>  (269) 
3305

>  <target_id>  (269) 
1

>  <reference_id>  (269) 
107

>  <inspiration_ids>  (269) 
[107, 96]

>  <energy_score>  (269) 
20.347765974959515

>  <distance_score>  (269) 
2.3703076580775058

>  <path>  (269) 
/opt/xchem-fragalysis-2/maxwin/BulkDock/SCRATCH/505734/C3305-P107/C3305-P107.minimised.mol

>  <scratch_subdir>  (269) 
/opt/xchem-fragalysis-2/maxwin/BulkDock/SCRATCH/505734/C3305-P107

>  <fragmenstein_runtime>  (269) 
3.95112681388855

>  <fragmenstein_outcome>  (269) 
too moved

>  <fragmenstein_mode>  (269) 
expansion

>  <fragmenstein_error>  (269) 


$$$$
C3305-P96
     RDKit          3D

 38 39  0  0  0  0  0  0  0  0999 V2000
  -11.0543  -20.9655   29.2931 C   0  0  0  0  0  0  0  0  0  0  0  0
  -10.8207  -22.5074   28.4729 S   0  0  0  0  0  0  0  0  0  0  0  0
   -9.5509  -23.0300   28.9383 O   0  0  0  0  0  0  0  0  0  0  0  0
  -10.9908  -22.2880   27.0549 O   0  0  0  0  0  0  0  0  0  0  0  0
  -12.1791  -23.5784   28.9250 C   0  0  0  0  0  0  0  0  0  0  0  0
  -12.7425  -23.3387   30.3038 C   0  0  0  0  0  0  0  0  0  0  0  0
  -11.7699  -23.8020   31.3225 C   0  0  0  0  0  0  0  0  0  0  0  0
  -10.8032  -24.7046   31.0610 C   0  0  0  0  0  0  0  0  0  0  0  0
   -9.6335  -24.8122   31.9980 C   0  0  0  0  0  0  0  0  0  0  0  0
   -9.3086  -23.4480   32.6413 C   0  0  0  0  0  0  0  0  0  0  0  0
  -10.5212  -22.6133   33.1226 C   0  0  0  0  0  0  0  0  0  0  0  0
  -10.4449  -21.2149   32.6738 N   0  0  0  0  0  0  0  0  0  0  0  0
  -11.8595  -23.1088   32.6320 C   0  0  0  0  0  0  0  0  0  0  0  0
  -10.7377  -25.4865   29.7615 C   0  0  0  0  0  0  0  0  0  0  0  0
  -11.8495  -25.0535   28.7959 C   0  0  0  0  0  0  0  0  0  0  0  0
  -11.8097  -25.4542   27.4376 O   0  0  0  0  0  0  0  0  0  0  0  0
  -10.5796  -25.3435   26.7701 C   0  0  0  0  0  0  0  0  0  0  0  0
   -9.7599  -26.3114   27.2502 F   0  0  0  0  0  0  0  0  0  0  0  0
  -11.0424  -21.1148   30.3621 H   0  0  0  0  0  0  0  0  0  0  0  0
  -10.2245  -20.3241   29.0185 H   0  0  0  0  0  0  0  0  0  0  0  0
  -11.9812  -20.5094   28.9952 H   0  0  0  0  0  0  0  0  0  0  0  0
  -12.9388  -23.3744   28.1841 H   0  0  0  0  0  0  0  0  0  0  0  0
  -13.6733  -23.8972   30.4535 H   0  0  0  0  0  0  0  0  0  0  0  0
  -12.9899  -22.2830   30.4370 H   0  0  0  0  0  0  0  0  0  0  0  0
   -9.8012  -25.5810   32.7532 H   0  0  0  0  0  0  0  0  0  0  0  0
   -8.7418  -25.1296   31.4452 H   0  0  0  0  0  0  0  0  0  0  0  0
   -8.7359  -22.8734   31.9032 H   0  0  0  0  0  0  0  0  0  0  0  0
   -8.6156  -23.5985   33.4790 H   0  0  0  0  0  0  0  0  0  0  0  0
  -10.5224  -22.6122   34.2188 H   0  0  0  0  0  0  0  0  0  0  0  0
  -10.9916  -20.6447   33.3250 H   0  0  0  0  0  0  0  0  0  0  0  0
   -9.4848  -20.8969   32.7981 H   0  0  0  0  0  0  0  0  0  0  0  0
  -12.6125  -22.3092   32.6288 H   0  0  0  0  0  0  0  0  0  0  0  0
  -12.2479  -23.8275   33.3256 H   0  0  0  0  0  0  0  0  0  0  0  0
  -10.8513  -26.5559   29.9724 H   0  0  0  0  0  0  0  0  0  0  0  0
   -9.7465  -25.3772   29.3156 H   0  0  0  0  0  0  0  0  0  0  0  0
  -12.7451  -25.5863   29.1506 H   0  0  0  0  0  0  0  0  0  0  0  0
  -10.7464  -25.5193   25.7120 H   0  0  0  0  0  0  0  0  0  0  0  0
  -10.0896  -24.3902   26.8814 H   0  0  0  0  0  0  0  0  0  0  0  0
  1  2  1  0
  2  3  2  0
  2  4  2  0
  2  5  1  0
  5  6  1  0
  6  7  1  0
  7  8  2  0
  8  9  1  0
  9 10  1  0
 10 11  1  0
 11 12  1  0
 11 13  1  0
  8 14  1  0
 14 15  1  0
 15 16  1  0
 16 17  1  0
 17 18  1  0
 15  5  1  0
 13  7  1  0
  1 19  1  0
  1 20  1  0
  1 21  1  0
  5 22  1  0
  6 23  1  0
  6 24  1  0
  9 25  1  0
  9 26  1  0
 10 27  1  0
 10 28  1  0
 11 29  1  0
 12 30  1  0
 12 31  1  0
 13 32  1  0
 13 33  1  0
 14 34  1  0
 14 35  1  0
 15 36  1  0
 17 37  1  0
 17 38  1  0
M  END
>  <Energy>  (270) 
39.785310816279669

>  <compound_id>  (270) 
3305

>  <target_id>  (270) 
1

>  <reference_id>  (270) 
96

>  <inspiration_ids>  (270) 
[107, 96]

>  <energy_score>  (270) 
-26.376042907112847

>  <distance_score>  (270) 
1.8621217212236267

>  <path>  (270) 
/opt/xchem-fragalysis-2/maxwin/BulkDock/SCRATCH/505734/C3305-P96/C3305-P96.minimised.mol

>  <scratch_subdir>  (270) 
/opt/xchem-fragalysis-2/maxwin/BulkDock/SCRATCH/505734/C3305-P96

>  <fragmenstein_runtime>  (270) 
4.771476745605469

>  <fragmenstein_outcome>  (270) 
too moved

>  <fragmenstein_mode>  (270) 
expansion

>  <fragmenstein_error>  (270) 


$$$$
C3306-P107
     RDKit          3D

 43 43  0  0  0  0  0  0  0  0999 V2000
  -12.5534  -21.8466   33.0745 C   0  0  0  0  0  0  0  0  0  0  0  0
  -12.1515  -23.2745   32.7248 C   0  0  0  0  0  0  0  0  0  0  0  0
  -11.3924  -23.3475   31.3823 C   0  0  0  0  0  0  0  0  0  0  0  0
  -12.3122  -22.9036   30.1972 C   0  0  0  0  0  0  0  0  0  0  0  0
  -13.4269  -22.5501   30.4411 O   0  0  0  0  0  0  0  0  0  0  0  0
  -11.5869  -22.9151   28.9649 N   0  0  0  0  0  0  0  0  0  0  0  0
  -11.9881  -22.6050   27.6583 C   0  0  0  0  0  0  0  0  0  0  0  0
  -11.3527  -23.4541   26.7493 O   0  0  0  0  0  0  0  0  0  0  0  0
  -11.9885  -23.3403   25.4827 C   0  0  0  0  0  0  0  0  0  0  0  0
  -11.1628  -23.9470   24.5984 F   0  0  0  0  0  0  0  0  0  0  0  0
  -10.7905  -24.7191   31.1504 C   0  0  0  0  0  0  0  0  0  0  0  0
  -10.5294  -25.7613   32.0233 C   0  0  0  0  0  0  0  0  0  0  0  0
  -10.4033  -27.0063   31.3069 C   0  0  0  0  0  0  0  0  0  0  0  0
  -10.7593  -26.7790   30.0007 C   0  0  0  0  0  0  0  0  0  0  0  0
  -12.0485  -27.2292   29.4770 C   0  0  0  0  0  0  0  0  0  0  0  0
  -12.3325  -27.5364   28.0564 C   0  0  0  0  0  0  0  0  0  0  0  0
  -12.2526  -26.3541   27.1064 C   0  0  0  0  0  0  0  0  0  0  0  0
  -10.9607  -26.4786   26.3180 C   0  0  0  0  0  0  0  0  0  0  0  0
  -13.4140  -26.3566   26.2006 N   0  0  0  0  0  0  0  0  0  0  0  0
  -10.1156  -25.2622   29.6352 S   0  0  0  0  0  0  0  0  0  0  0  0
  -11.8009  -21.1219   32.7518 H   0  0  0  0  0  0  0  0  0  0  0  0
  -12.6672  -21.7327   34.1474 H   0  0  0  0  0  0  0  0  0  0  0  0
  -13.5150  -21.5789   32.6298 H   0  0  0  0  0  0  0  0  0  0  0  0
  -13.0389  -23.9180   32.7185 H   0  0  0  0  0  0  0  0  0  0  0  0
  -11.5088  -23.6401   33.5308 H   0  0  0  0  0  0  0  0  0  0  0  0
  -10.6023  -22.6015   31.4627 H   0  0  0  0  0  0  0  0  0  0  0  0
  -10.6963  -23.3589   29.1129 H   0  0  0  0  0  0  0  0  0  0  0  0
  -13.0471  -22.7885   27.6392 H   0  0  0  0  0  0  0  0  0  0  0  0
  -11.7153  -21.5735   27.4685 H   0  0  0  0  0  0  0  0  0  0  0  0
  -12.9690  -23.8147   25.4697 H   0  0  0  0  0  0  0  0  0  0  0  0
  -12.0781  -22.3184   25.1324 H   0  0  0  0  0  0  0  0  0  0  0  0
  -10.6147  -25.6997   33.0998 H   0  0  0  0  0  0  0  0  0  0  0  0
  -10.5263  -27.9644   31.7909 H   0  0  0  0  0  0  0  0  0  0  0  0
  -12.6967  -26.4029   29.7515 H   0  0  0  0  0  0  0  0  0  0  0  0
  -12.3321  -28.1245   30.0387 H   0  0  0  0  0  0  0  0  0  0  0  0
  -11.6967  -28.3583   27.7437 H   0  0  0  0  0  0  0  0  0  0  0  0
  -13.3604  -27.9249   28.0586 H   0  0  0  0  0  0  0  0  0  0  0  0
  -12.3006  -25.4195   27.6596 H   0  0  0  0  0  0  0  0  0  0  0  0
  -10.1058  -26.3380   26.9793 H   0  0  0  0  0  0  0  0  0  0  0  0
  -10.9113  -25.7586   25.5134 H   0  0  0  0  0  0  0  0  0  0  0  0
  -10.8262  -27.4479   25.8354 H   0  0  0  0  0  0  0  0  0  0  0  0
  -13.4036  -27.2959   25.7793 H   0  0  0  0  0  0  0  0  0  0  0  0
  -13.1896  -25.7868   25.3865 H   0  0  0  0  0  0  0  0  0  0  0  0
  1  2  1  0
  2  3  1  0
  3  4  1  0
  4  5  2  0
  4  6  1  0
  6  7  1  0
  7  8  1  0
  8  9  1  0
  9 10  1  0
  3 11  1  0
 11 12  2  0
 12 13  1  0
 13 14  2  0
 14 15  1  0
 15 16  1  0
 16 17  1  0
 17 18  1  0
 17 19  1  0
 14 20  1  0
 20 11  1  0
  1 21  1  0
  1 22  1  0
  1 23  1  0
  2 24  1  0
  2 25  1  0
  3 26  1  0
  6 27  1  0
  7 28  1  0
  7 29  1  0
  9 30  1  0
  9 31  1  0
 12 32  1  0
 13 33  1  0
 15 34  1  0
 15 35  1  0
 16 36  1  0
 16 37  1  0
 17 38  1  0
 18 39  1  0
 18 40  1  0
 18 41  1  0
 19 42  1  0
 19 43  1  0
M  END
>  <Energy>  (271) 
41.366242322314001

>  <compound_id>  (271) 
3306

>  <target_id>  (271) 
1

>  <reference_id>  (271) 
107

>  <inspiration_ids>  (271) 
[107, 101]

>  <energy_score>  (271) 
18.68903196128352

>  <distance_score>  (271) 
2.120140543130622

>  <path>  (271) 
/opt/xchem-fragalysis-2/maxwin/BulkDock/SCRATCH/505734/C3306-P107/C3306-P107.minimised.mol

>  <scratch_subdir>  (271) 
/opt/xchem-fragalysis-2/maxwin/BulkDock/SCRATCH/505734/C3306-P107

>  <fragmenstein_runtime>  (271) 
6.93806004524231

>  <fragmenstein_outcome>  (271) 
too moved

>  <fragmenstein_mode>  (271) 
expansion

>  <fragmenstein_error>  (271) 


$$$$
C3306-P101
     RDKit          3D

 43 43  0  0  0  0  0  0  0  0999 V2000
  -11.0545  -21.1341   32.0216 C   0  0  0  0  0  0  0  0  0  0  0  0
  -11.1057  -22.5378   32.5292 C   0  0  0  0  0  0  0  0  0  0  0  0
  -12.1641  -23.2330   31.7504 C   0  0  0  0  0  0  0  0  0  0  0  0
  -12.9049  -23.9872   32.8451 C   0  0  0  0  0  0  0  0  0  0  0  0
  -12.3831  -24.7124   33.5995 O   0  0  0  0  0  0  0  0  0  0  0  0
  -14.4115  -23.6488   32.6494 N   0  0  0  0  0  0  0  0  0  0  0  0
  -15.5518  -24.1894   33.2588 C   0  0  0  0  0  0  0  0  0  0  0  0
  -16.3090  -24.5660   32.1213 O   0  0  0  0  0  0  0  0  0  0  0  0
  -17.5399  -25.1356   32.5136 C   0  0  0  0  0  0  0  0  0  0  0  0
  -17.3082  -26.1787   33.3468 F   0  0  0  0  0  0  0  0  0  0  0  0
  -11.5781  -23.9851   30.5648 C   0  0  0  0  0  0  0  0  0  0  0  0
  -10.5985  -24.9543   30.4547 C   0  0  0  0  0  0  0  0  0  0  0  0
  -10.4362  -25.4226   29.1135 C   0  0  0  0  0  0  0  0  0  0  0  0
  -11.2904  -24.7994   28.2316 C   0  0  0  0  0  0  0  0  0  0  0  0
  -11.5322  -25.1045   26.7913 C   0  0  0  0  0  0  0  0  0  0  0  0
  -12.1633  -26.4863   26.6080 C   0  0  0  0  0  0  0  0  0  0  0  0
  -13.5463  -26.4891   25.9072 C   0  0  0  0  0  0  0  0  0  0  0  0
  -14.2382  -27.8528   25.9842 C   0  0  0  0  0  0  0  0  0  0  0  0
  -14.4969  -25.5144   26.4470 N   0  0  0  0  0  0  0  0  0  0  0  0
  -12.1261  -23.5421   28.9993 S   0  0  0  0  0  0  0  0  0  0  0  0
  -11.1354  -21.0838   30.9327 H   0  0  0  0  0  0  0  0  0  0  0  0
  -10.1555  -20.5960   32.2987 H   0  0  0  0  0  0  0  0  0  0  0  0
  -11.8767  -20.6118   32.5026 H   0  0  0  0  0  0  0  0  0  0  0  0
  -11.4080  -22.4739   33.5787 H   0  0  0  0  0  0  0  0  0  0  0  0
  -10.1513  -23.0655   32.5054 H   0  0  0  0  0  0  0  0  0  0  0  0
  -12.8496  -22.4774   31.3456 H   0  0  0  0  0  0  0  0  0  0  0  0
  -14.5197  -23.0439   31.8540 H   0  0  0  0  0  0  0  0  0  0  0  0
  -15.2772  -25.0458   33.8809 H   0  0  0  0  0  0  0  0  0  0  0  0
  -16.0581  -23.4093   33.8336 H   0  0  0  0  0  0  0  0  0  0  0  0
  -18.1682  -24.3996   33.0249 H   0  0  0  0  0  0  0  0  0  0  0  0
  -18.0628  -25.5064   31.6285 H   0  0  0  0  0  0  0  0  0  0  0  0
  -10.0539  -25.3445   31.3066 H   0  0  0  0  0  0  0  0  0  0  0  0
   -9.7733  -26.2315   28.8368 H   0  0  0  0  0  0  0  0  0  0  0  0
  -10.5662  -25.0791   26.2900 H   0  0  0  0  0  0  0  0  0  0  0  0
  -12.1083  -24.3136   26.3003 H   0  0  0  0  0  0  0  0  0  0  0  0
  -11.4747  -27.0563   25.9790 H   0  0  0  0  0  0  0  0  0  0  0  0
  -12.1945  -27.0495   27.5417 H   0  0  0  0  0  0  0  0  0  0  0  0
  -13.3806  -26.2515   24.8506 H   0  0  0  0  0  0  0  0  0  0  0  0
  -14.7696  -27.9987   26.9298 H   0  0  0  0  0  0  0  0  0  0  0  0
  -13.5346  -28.6791   25.8962 H   0  0  0  0  0  0  0  0  0  0  0  0
  -14.9830  -27.9482   25.1857 H   0  0  0  0  0  0  0  0  0  0  0  0
  -15.3716  -25.5707   25.9250 H   0  0  0  0  0  0  0  0  0  0  0  0
  -14.1418  -24.5728   26.2723 H   0  0  0  0  0  0  0  0  0  0  0  0
  1  2  1  0
  2  3  1  0
  3  4  1  0
  4  5  2  0
  4  6  1  0
  6  7  1  0
  7  8  1  0
  8  9  1  0
  9 10  1  0
  3 11  1  0
 11 12  2  0
 12 13  1  0
 13 14  2  0
 14 15  1  0
 15 16  1  0
 16 17  1  0
 17 18  1  0
 17 19  1  0
 14 20  1  0
 20 11  1  0
  1 21  1  0
  1 22  1  0
  1 23  1  0
  2 24  1  0
  2 25  1  0
  3 26  1  0
  6 27  1  0
  7 28  1  0
  7 29  1  0
  9 30  1  0
  9 31  1  0
 12 32  1  0
 13 33  1  0
 15 34  1  0
 15 35  1  0
 16 36  1  0
 16 37  1  0
 17 38  1  0
 18 39  1  0
 18 40  1  0
 18 41  1  0
 19 42  1  0
 19 43  1  0
M  END
>  <Energy>  (272) 
6.216499952450965

>  <compound_id>  (272) 
3306

>  <target_id>  (272) 
1

>  <reference_id>  (272) 
101

>  <inspiration_ids>  (272) 
[107, 101]

>  <energy_score>  (272) 
-13.738661783266508

>  <distance_score>  (272) 
3.0018149862353503

>  <path>  (272) 
/opt/xchem-fragalysis-2/maxwin/BulkDock/SCRATCH/505734/C3306-P101/C3306-P101.minimised.mol

>  <scratch_subdir>  (272) 
/opt/xchem-fragalysis-2/maxwin/BulkDock/SCRATCH/505734/C3306-P101

>  <fragmenstein_runtime>  (272) 
5.1305224895477295

>  <fragmenstein_outcome>  (272) 
too moved

>  <fragmenstein_mode>  (272) 
expansion

>  <fragmenstein_error>  (272) 


$$$$
C3308-P107
     RDKit          3D

 42 44  0  0  0  0  0  0  0  0999 V2000
  -12.1112  -23.9604   25.3186 N   0  0  0  0  0  0  0  0  0  0  0  0
  -10.8782  -24.6086   25.7535 C   0  0  0  0  0  0  0  0  0  0  0  0
  -10.4227  -24.3167   27.1598 C   0  0  0  0  0  0  0  0  0  0  0  0
  -11.0235  -23.3746   27.8812 C   0  0  0  0  0  0  0  0  0  0  0  0
  -11.0336  -23.7718   29.1732 C   0  0  0  0  0  0  0  0  0  0  0  0
  -10.5333  -25.2046   29.5470 C   0  0  0  0  0  0  0  0  0  0  0  0
  -10.1309  -26.3457   30.5438 C   0  0  0  0  0  0  0  0  0  0  0  0
   -9.2128  -25.8432   31.4194 C   0  0  0  0  0  0  0  0  0  0  0  0
   -9.4680  -24.6337   30.9127 N   0  0  0  0  0  0  0  0  0  0  0  0
  -10.6546  -23.9681   31.7322 C   0  0  0  0  0  0  0  0  0  0  0  0
  -12.3822  -24.5513   31.6354 S   0  0  0  0  0  4  0  0  0  0  0  0
  -12.9184  -25.1713   29.9818 C   0  0  0  0  0  0  0  0  0  0  0  0
  -13.6806  -24.4331   29.0896 C   0  0  0  0  0  0  0  0  0  0  0  0
  -14.0045  -25.0368   27.8569 C   0  0  0  0  0  0  0  0  0  0  0  0
  -13.4377  -26.2062   27.3757 C   0  0  0  0  0  0  0  0  0  0  0  0
  -13.8635  -26.6337   26.1185 N   0  0  0  0  0  0  0  0  0  0  0  0
  -12.7161  -26.9805   28.2456 C   0  0  0  0  0  0  0  0  0  0  0  0
  -12.5424  -26.5034   29.5493 C   0  0  0  0  0  0  0  0  0  0  0  0
  -13.2794  -23.1322   32.1335 C   0  0  0  0  0  0  0  0  0  0  0  0
  -13.4617  -22.2568   31.1096 F   0  0  0  0  0  0  0  0  0  0  0  0
  -12.5607  -22.4355   33.0594 F   0  0  0  0  0  0  0  0  0  0  0  0
   -9.2094  -25.0596   29.3839 C   0  0  0  0  0  0  0  0  0  0  0  0
   -9.4379  -25.0445   27.9352 C   0  0  0  0  0  0  0  0  0  0  0  0
  -12.8930  -24.3456   25.8366 H   0  0  0  0  0  0  0  0  0  0  0  0
  -12.1045  -22.9557   25.4844 H   0  0  0  0  0  0  0  0  0  0  0  0
  -11.0217  -25.6901   25.6501 H   0  0  0  0  0  0  0  0  0  0  0  0
  -10.1422  -24.3079   25.0152 H   0  0  0  0  0  0  0  0  0  0  0  0
  -11.6042  -22.5410   27.5237 H   0  0  0  0  0  0  0  0  0  0  0  0
  -11.5455  -23.0718   29.8244 H   0  0  0  0  0  0  0  0  0  0  0  0
  -10.1925  -27.4093   30.3384 H   0  0  0  0  0  0  0  0  0  0  0  0
   -8.5234  -26.0693   32.2021 H   0  0  0  0  0  0  0  0  0  0  0  0
  -10.3529  -24.1521   32.7734 H   0  0  0  0  0  0  0  0  0  0  0  0
  -10.5871  -22.8866   31.5968 H   0  0  0  0  0  0  0  0  0  0  0  0
  -12.5649  -25.5126   32.5555 H   0  0  0  0  0  0  0  0  0  0  0  0
  -14.0764  -23.4769   29.3778 H   0  0  0  0  0  0  0  0  0  0  0  0
  -14.7909  -24.6980   27.2082 H   0  0  0  0  0  0  0  0  0  0  0  0
  -14.7658  -27.0945   26.1663 H   0  0  0  0  0  0  0  0  0  0  0  0
  -13.1758  -27.3011   25.7393 H   0  0  0  0  0  0  0  0  0  0  0  0
  -12.3289  -27.9545   27.9886 H   0  0  0  0  0  0  0  0  0  0  0  0
  -12.1673  -27.2030   30.2873 H   0  0  0  0  0  0  0  0  0  0  0  0
  -14.2316  -23.3893   32.5885 H   0  0  0  0  0  0  0  0  0  0  0  0
   -9.0711  -25.9688   27.4815 H   0  0  0  0  0  0  0  0  0  0  0  0
  1  2  1  0
  2  3  1  0
  3  4  2  0
  4  5  1  0
  5  6  2  0
  6  7  1  0
  7  8  2  0
  8  9  1  0
  9 10  1  0
 10 11  1  0
 11 12  1  0
 12 13  2  0
 13 14  1  0
 14 15  2  0
 15 16  1  0
 15 17  1  0
 17 18  2  0
 11 19  1  0
 19 20  1  0
 19 21  1  0
  9 22  1  0
 22 23  2  0
 23  3  1  0
 22  6  1  0
 18 12  1  0
  1 24  1  0
  1 25  1  0
  2 26  1  0
  2 27  1  0
  4 28  1  0
  5 29  1  0
  7 30  1  0
  8 31  1  0
 10 32  1  0
 10 33  1  0
 11 34  1  0
 13 35  1  0
 14 36  1  0
 16 37  1  0
 16 38  1  0
 17 39  1  0
 18 40  1  0
 19 41  1  0
 23 42  1  0
M  END
>  <Energy>  (273) 
426.82238341027232

>  <compound_id>  (273) 
3308

>  <target_id>  (273) 
1

>  <reference_id>  (273) 
107

>  <inspiration_ids>  (273) 
[107, 110]

>  <energy_score>  (273) 
381.25463104867606

>  <distance_score>  (273) 
2.499662411714266

>  <path>  (273) 
/opt/xchem-fragalysis-2/maxwin/BulkDock/SCRATCH/505734/C3308-P107/C3308-P107.minimised.mol

>  <scratch_subdir>  (273) 
/opt/xchem-fragalysis-2/maxwin/BulkDock/SCRATCH/505734/C3308-P107

>  <fragmenstein_runtime>  (273) 
4.744778871536255

>  <fragmenstein_outcome>  (273) 
too moved

>  <fragmenstein_mode>  (273) 
expansion

>  <fragmenstein_error>  (273) 


$$$$
C3308-P110
     RDKit          3D

 42 44  0  0  0  0  0  0  0  0999 V2000
  -10.9794  -27.5836   24.7970 N   0  0  0  0  0  0  0  0  0  0  0  0
  -11.4817  -26.4671   25.5471 C   0  0  0  0  0  0  0  0  0  0  0  0
  -11.3441  -26.7105   27.0105 C   0  0  0  0  0  0  0  0  0  0  0  0
  -12.1939  -27.6186   27.6391 C   0  0  0  0  0  0  0  0  0  0  0  0
  -12.0498  -27.9398   28.9755 C   0  0  0  0  0  0  0  0  0  0  0  0
  -11.1726  -27.1688   29.7453 C   0  0  0  0  0  0  0  0  0  0  0  0
  -10.7649  -27.1290   31.0997 C   0  0  0  0  0  0  0  0  0  0  0  0
  -10.0983  -25.9333   31.2829 C   0  0  0  0  0  0  0  0  0  0  0  0
  -10.3743  -25.2057   30.1417 N   0  0  0  0  0  0  0  0  0  0  0  0
  -11.3387  -24.1109   30.2640 C   0  0  0  0  0  0  0  0  0  0  0  0
  -12.1993  -23.3883   28.9198 S   0  0  0  0  0  4  0  0  0  0  0  0
  -12.9196  -24.2445   27.5355 C   0  0  0  0  0  0  0  0  0  0  0  0
  -12.6477  -23.7714   26.2602 C   0  0  0  0  0  0  0  0  0  0  0  0
  -13.5490  -23.9852   25.1998 C   0  0  0  0  0  0  0  0  0  0  0  0
  -14.5944  -24.8966   25.2879 C   0  0  0  0  0  0  0  0  0  0  0  0
  -15.4466  -25.1331   24.2163 N   0  0  0  0  0  0  0  0  0  0  0  0
  -14.8917  -25.3791   26.5415 C   0  0  0  0  0  0  0  0  0  0  0  0
  -14.1058  -24.9981   27.6398 C   0  0  0  0  0  0  0  0  0  0  0  0
  -10.9768  -22.3137   28.4199 C   0  0  0  0  0  0  0  0  0  0  0  0
   -9.8486  -23.0291   28.2214 F   0  0  0  0  0  0  0  0  0  0  0  0
  -10.7390  -21.4443   29.4334 F   0  0  0  0  0  0  0  0  0  0  0  0
  -10.5239  -26.1149   29.1240 C   0  0  0  0  0  0  0  0  0  0  0  0
  -10.4444  -25.9519   27.7540 C   0  0  0  0  0  0  0  0  0  0  0  0
  -11.6854  -28.3323   24.8265 H   0  0  0  0  0  0  0  0  0  0  0  0
  -10.2344  -28.0036   25.3532 H   0  0  0  0  0  0  0  0  0  0  0  0
  -12.5247  -26.3673   25.2680 H   0  0  0  0  0  0  0  0  0  0  0  0
  -10.9505  -25.5621   25.2446 H   0  0  0  0  0  0  0  0  0  0  0  0
  -13.0064  -28.0607   27.0884 H   0  0  0  0  0  0  0  0  0  0  0  0
  -12.6611  -28.7172   29.4210 H   0  0  0  0  0  0  0  0  0  0  0  0
  -10.9786  -27.8489   31.8723 H   0  0  0  0  0  0  0  0  0  0  0  0
   -9.7071  -25.4658   32.1764 H   0  0  0  0  0  0  0  0  0  0  0  0
  -10.8371  -23.3068   30.8037 H   0  0  0  0  0  0  0  0  0  0  0  0
  -12.0224  -24.4437   31.0230 H   0  0  0  0  0  0  0  0  0  0  0  0
  -13.1064  -22.5610   29.4616 H   0  0  0  0  0  0  0  0  0  0  0  0
  -11.8259  -23.1029   26.0562 H   0  0  0  0  0  0  0  0  0  0  0  0
  -13.4122  -23.3952   24.2974 H   0  0  0  0  0  0  0  0  0  0  0  0
  -14.9833  -25.1176   23.3048 H   0  0  0  0  0  0  0  0  0  0  0  0
  -16.0382  -25.9506   24.3143 H   0  0  0  0  0  0  0  0  0  0  0  0
  -15.8092  -25.9350   26.7147 H   0  0  0  0  0  0  0  0  0  0  0  0
  -14.6587  -25.0840   28.5671 H   0  0  0  0  0  0  0  0  0  0  0  0
  -11.2553  -21.7650   27.5349 H   0  0  0  0  0  0  0  0  0  0  0  0
   -9.8996  -25.1260   27.3184 H   0  0  0  0  0  0  0  0  0  0  0  0
  1  2  1  0
  2  3  1  0
  3  4  2  0
  4  5  1  0
  5  6  2  0
  6  7  1  0
  7  8  2  0
  8  9  1  0
  9 10  1  0
 10 11  1  0
 11 12  1  0
 12 13  2  0
 13 14  1  0
 14 15  2  0
 15 16  1  0
 15 17  1  0
 17 18  2  0
 11 19  1  0
 19 20  1  0
 19 21  1  0
  9 22  1  0
 22 23  2  0
 23  3  1  0
 22  6  1  0
 18 12  1  0
  1 24  1  0
  1 25  1  0
  2 26  1  0
  2 27  1  0
  4 28  1  0
  5 29  1  0
  7 30  1  0
  8 31  1  0
 10 32  1  0
 10 33  1  0
 11 34  1  0
 13 35  1  0
 14 36  1  0
 16 37  1  0
 16 38  1  0
 17 39  1  0
 18 40  1  0
 19 41  1  0
 23 42  1  0
M  END
>  <Energy>  (274) 
88.283475456202723

>  <compound_id>  (274) 
3308

>  <target_id>  (274) 
1

>  <reference_id>  (274) 
110

>  <inspiration_ids>  (274) 
[107, 110]

>  <energy_score>  (274) 
42.71572309459958

>  <distance_score>  (274) 
2.9129043960538534

>  <path>  (274) 
/opt/xchem-fragalysis-2/maxwin/BulkDock/SCRATCH/505734/C3308-P110/C3308-P110.minimised.mol

>  <scratch_subdir>  (274) 
/opt/xchem-fragalysis-2/maxwin/BulkDock/SCRATCH/505734/C3308-P110

>  <fragmenstein_runtime>  (274) 
7.506960153579712

>  <fragmenstein_outcome>  (274) 
too moved

>  <fragmenstein_mode>  (274) 
expansion

>  <fragmenstein_error>  (274) 


$$$$
C2275-P107
     RDKit          3D

 48 50  0  0  0  0  0  0  0  0999 V2000
   -9.9802  -24.2670   27.0702 N   0  0  0  0  0  0  0  0  0  0  0  0
  -11.1386  -24.4442   26.3195 C   0  0  0  0  0  0  0  0  0  0  0  0
  -11.3774  -25.5686   25.5428 C   0  0  0  0  0  0  0  0  0  0  0  0
  -12.6889  -25.9671   25.3022 C   0  0  0  0  0  0  0  0  0  0  0  0
  -13.6990  -25.4369   26.0663 C   0  0  0  0  0  0  0  0  0  0  0  0
  -15.2961  -26.2096   26.1935 S   0  0  0  0  0  0  0  0  0  0  0  0
  -15.9249  -25.8610   24.5417 C   0  0  0  0  0  0  0  0  0  0  0  0
  -15.1516  -26.4690   23.6052 F   0  0  0  0  0  0  0  0  0  0  0  0
  -15.9149  -24.5289   24.2867 F   0  0  0  0  0  0  0  0  0  0  0  0
  -13.2844  -24.4547   26.9554 C   0  0  0  0  0  0  0  0  0  0  0  0
  -13.6202  -24.5906   28.4039 C   0  0  0  0  0  0  0  0  0  0  0  0
  -12.6390  -24.0934   29.4144 C   0  0  0  0  0  0  0  0  0  0  0  0
  -11.4908  -24.8353   29.5075 C   0  0  0  0  0  0  0  0  0  0  0  0
  -10.6384  -24.5507   30.5172 C   0  0  0  0  0  0  0  0  0  0  0  0
   -9.5271  -25.3935   30.7333 N   0  0  0  0  0  0  0  0  0  0  0  0
   -8.7702  -25.1290   31.9528 C   0  0  0  0  0  0  0  0  0  0  0  0
   -9.6010  -25.1025   33.1749 C   0  0  0  0  0  0  0  0  0  0  0  0
  -10.7778  -25.9904   33.0985 C   0  0  0  0  0  0  0  0  0  0  0  0
  -10.9804  -26.9060   31.8643 C   0  0  0  0  0  0  0  0  0  0  0  0
   -9.9521  -26.7887   30.7674 C   0  0  0  0  0  0  0  0  0  0  0  0
  -10.9131  -23.5380   31.3462 N   0  0  0  0  0  0  0  0  0  0  0  0
  -12.0702  -22.8843   31.2267 C   0  0  0  0  0  0  0  0  0  0  0  0
  -12.4350  -22.0138   32.3980 C   0  0  0  0  0  0  0  0  0  0  0  0
  -13.8286  -21.7409   32.4717 O   0  0  0  0  0  0  0  0  0  0  0  0
  -12.9482  -23.0777   30.2336 N   0  0  0  0  0  0  0  0  0  0  0  0
  -12.1941  -23.6743   26.6855 C   0  0  0  0  0  0  0  0  0  0  0  0
   -9.9887  -23.4518   27.6763 H   0  0  0  0  0  0  0  0  0  0  0  0
   -9.1586  -24.2400   26.5053 H   0  0  0  0  0  0  0  0  0  0  0  0
  -10.6006  -26.2442   25.2232 H   0  0  0  0  0  0  0  0  0  0  0  0
  -12.8604  -26.8063   24.6528 H   0  0  0  0  0  0  0  0  0  0  0  0
  -16.9486  -26.2280   24.4353 H   0  0  0  0  0  0  0  0  0  0  0  0
  -14.6240  -24.2976   28.6622 H   0  0  0  0  0  0  0  0  0  0  0  0
  -13.5546  -25.6733   28.5274 H   0  0  0  0  0  0  0  0  0  0  0  0
  -11.2989  -25.6488   28.8215 H   0  0  0  0  0  0  0  0  0  0  0  0
   -8.2812  -24.1783   31.9834 H   0  0  0  0  0  0  0  0  0  0  0  0
   -7.9774  -25.8622   32.0679 H   0  0  0  0  0  0  0  0  0  0  0  0
   -9.9508  -24.0837   33.3254 H   0  0  0  0  0  0  0  0  0  0  0  0
   -9.0149  -25.3329   34.0663 H   0  0  0  0  0  0  0  0  0  0  0  0
  -10.6943  -26.5825   34.0122 H   0  0  0  0  0  0  0  0  0  0  0  0
  -11.6672  -25.3530   33.2178 H   0  0  0  0  0  0  0  0  0  0  0  0
  -11.0362  -27.9581   32.1367 H   0  0  0  0  0  0  0  0  0  0  0  0
  -11.9537  -26.6593   31.4346 H   0  0  0  0  0  0  0  0  0  0  0  0
   -9.1109  -27.4543   30.9735 H   0  0  0  0  0  0  0  0  0  0  0  0
  -10.3397  -27.1505   29.8099 H   0  0  0  0  0  0  0  0  0  0  0  0
  -11.8745  -21.0786   32.3579 H   0  0  0  0  0  0  0  0  0  0  0  0
  -12.1617  -22.5270   33.3260 H   0  0  0  0  0  0  0  0  0  0  0  0
  -14.2713  -22.4905   32.0150 H   0  0  0  0  0  0  0  0  0  0  0  0
  -12.0067  -22.7808   27.2807 H   0  0  0  0  0  0  0  0  0  0  0  0
  1  2  1  0
  2  3  2  0
  3  4  1  0
  4  5  2  0
  5  6  1  0
  6  7  1  0
  7  8  1  0
  7  9  1  0
  5 10  1  0
 10 11  1  0
 11 12  1  0
 12 13  2  0
 13 14  1  0
 14 15  1  0
 15 16  1  0
 16 17  1  0
 17 18  1  0
 18 19  1  0
 19 20  1  0
 14 21  2  0
 21 22  1  0
 22 23  1  0
 23 24  1  0
 22 25  2  0
 10 26  2  0
 26  2  1  0
 25 12  1  0
 20 15  1  0
  1 27  1  0
  1 28  1  0
  3 29  1  0
  4 30  1  0
  7 31  1  0
 11 32  1  0
 11 33  1  0
 13 34  1  0
 16 35  1  0
 16 36  1  0
 17 37  1  0
 17 38  1  0
 18 39  1  0
 18 40  1  0
 19 41  1  0
 19 42  1  0
 20 43  1  0
 20 44  1  0
 23 45  1  0
 23 46  1  0
 24 47  1  0
 26 48  1  0
M  END
>  <Energy>  (275) 
99.443717699750295

>  <compound_id>  (275) 
2275

>  <target_id>  (275) 
1

>  <reference_id>  (275) 
107

>  <inspiration_ids>  (275) 
[107, 115]

>  <energy_score>  (275) 
44.123560917615976

>  <distance_score>  (275) 
1.7044402636411977

>  <path>  (275) 
/opt/xchem-fragalysis-2/maxwin/BulkDock/SCRATCH/505734/C2275-P107/C2275-P107.minimised.mol

>  <scratch_subdir>  (275) 
/opt/xchem-fragalysis-2/maxwin/BulkDock/SCRATCH/505734/C2275-P107

>  <fragmenstein_runtime>  (275) 
11.74630880355835

>  <fragmenstein_outcome>  (275) 
too moved

>  <fragmenstein_mode>  (275) 
expansion

>  <fragmenstein_error>  (275) 


$$$$
C2275-P115
     RDKit          3D

 48 50  0  0  0  0  0  0  0  0999 V2000
  -12.1835  -23.2864   24.9239 N   0  0  0  0  0  0  0  0  0  0  0  0
  -11.7311  -24.1178   25.9427 C   0  0  0  0  0  0  0  0  0  0  0  0
  -11.4492  -25.4439   25.7084 C   0  0  0  0  0  0  0  0  0  0  0  0
  -11.2576  -26.3058   26.7670 C   0  0  0  0  0  0  0  0  0  0  0  0
  -11.4577  -25.8539   28.0671 C   0  0  0  0  0  0  0  0  0  0  0  0
  -12.1821  -27.0782   29.1411 S   0  0  0  0  0  0  0  0  0  0  0  0
  -13.7603  -27.2713   28.3066 C   0  0  0  0  0  0  0  0  0  0  0  0
  -14.7260  -26.5519   28.9405 F   0  0  0  0  0  0  0  0  0  0  0  0
  -14.1601  -28.5692   28.3662 F   0  0  0  0  0  0  0  0  0  0  0  0
  -11.4192  -24.4843   28.3349 C   0  0  0  0  0  0  0  0  0  0  0  0
  -11.6978  -23.8037   29.6473 C   0  0  0  0  0  0  0  0  0  0  0  0
  -11.0445  -24.0723   30.9533 C   0  0  0  0  0  0  0  0  0  0  0  0
  -10.5263  -25.2735   31.3427 C   0  0  0  0  0  0  0  0  0  0  0  0
  -10.2314  -25.4516   32.6773 C   0  0  0  0  0  0  0  0  0  0  0  0
   -9.8998  -26.7553   33.1319 N   0  0  0  0  0  0  0  0  0  0  0  0
   -8.9176  -27.4196   32.2777 C   0  0  0  0  0  0  0  0  0  0  0  0
   -8.1071  -28.4818   33.0152 C   0  0  0  0  0  0  0  0  0  0  0  0
   -8.9853  -29.2120   33.9999 C   0  0  0  0  0  0  0  0  0  0  0  0
   -9.3449  -28.2093   35.0779 C   0  0  0  0  0  0  0  0  0  0  0  0
   -9.5802  -26.7817   34.5437 C   0  0  0  0  0  0  0  0  0  0  0  0
  -10.3056  -24.4194   33.5353 N   0  0  0  0  0  0  0  0  0  0  0  0
  -10.7599  -23.2469   33.0665 C   0  0  0  0  0  0  0  0  0  0  0  0
  -10.7997  -22.0509   33.9768 C   0  0  0  0  0  0  0  0  0  0  0  0
   -9.8668  -21.0301   33.6253 O   0  0  0  0  0  0  0  0  0  0  0  0
  -11.1529  -23.0387   31.8069 N   0  0  0  0  0  0  0  0  0  0  0  0
  -11.5239  -23.6264   27.2218 C   0  0  0  0  0  0  0  0  0  0  0  0
  -11.4937  -23.0815   24.2057 H   0  0  0  0  0  0  0  0  0  0  0  0
  -12.6118  -22.4162   25.2696 H   0  0  0  0  0  0  0  0  0  0  0  0
  -11.5040  -25.8751   24.7252 H   0  0  0  0  0  0  0  0  0  0  0  0
  -11.1638  -27.3593   26.5391 H   0  0  0  0  0  0  0  0  0  0  0  0
  -13.7677  -26.9593   27.2621 H   0  0  0  0  0  0  0  0  0  0  0  0
  -11.6237  -22.7165   29.4955 H   0  0  0  0  0  0  0  0  0  0  0  0
  -12.7325  -23.9932   29.8757 H   0  0  0  0  0  0  0  0  0  0  0  0
  -10.3986  -26.0847   30.6554 H   0  0  0  0  0  0  0  0  0  0  0  0
   -9.4381  -27.8836   31.4386 H   0  0  0  0  0  0  0  0  0  0  0  0
   -8.2408  -26.6610   31.9002 H   0  0  0  0  0  0  0  0  0  0  0  0
   -7.2835  -28.0101   33.5667 H   0  0  0  0  0  0  0  0  0  0  0  0
   -7.6354  -29.1727   32.3213 H   0  0  0  0  0  0  0  0  0  0  0  0
   -9.8832  -29.6027   33.5089 H   0  0  0  0  0  0  0  0  0  0  0  0
   -8.4564  -30.0644   34.4395 H   0  0  0  0  0  0  0  0  0  0  0  0
  -10.1897  -28.5635   35.6713 H   0  0  0  0  0  0  0  0  0  0  0  0
   -8.5125  -28.1934   35.7906 H   0  0  0  0  0  0  0  0  0  0  0  0
  -10.3597  -26.3077   35.1499 H   0  0  0  0  0  0  0  0  0  0  0  0
   -8.6576  -26.2036   34.6299 H   0  0  0  0  0  0  0  0  0  0  0  0
  -10.5962  -22.3530   35.0058 H   0  0  0  0  0  0  0  0  0  0  0  0
  -11.7900  -21.5982   33.9106 H   0  0  0  0  0  0  0  0  0  0  0  0
   -9.0189  -21.4658   33.4337 H   0  0  0  0  0  0  0  0  0  0  0  0
  -11.6474  -22.5557   27.3824 H   0  0  0  0  0  0  0  0  0  0  0  0
  1  2  1  0
  2  3  2  0
  3  4  1  0
  4  5  2  0
  5  6  1  0
  6  7  1  0
  7  8  1  0
  7  9  1  0
  5 10  1  0
 10 11  1  0
 11 12  1  0
 12 13  2  0
 13 14  1  0
 14 15  1  0
 15 16  1  0
 16 17  1  0
 17 18  1  0
 18 19  1  0
 19 20  1  0
 14 21  2  0
 21 22  1  0
 22 23  1  0
 23 24  1  0
 22 25  2  0
 10 26  2  0
 26  2  1  0
 25 12  1  0
 20 15  1  0
  1 27  1  0
  1 28  1  0
  3 29  1  0
  4 30  1  0
  7 31  1  0
 11 32  1  0
 11 33  1  0
 13 34  1  0
 16 35  1  0
 16 36  1  0
 17 37  1  0
 17 38  1  0
 18 39  1  0
 18 40  1  0
 19 41  1  0
 19 42  1  0
 20 43  1  0
 20 44  1  0
 23 45  1  0
 23 46  1  0
 24 47  1  0
 26 48  1  0
M  END
>  <Energy>  (276) 
53.713161363664426

>  <compound_id>  (276) 
2275

>  <target_id>  (276) 
1

>  <reference_id>  (276) 
115

>  <inspiration_ids>  (276) 
[107, 115]

>  <energy_score>  (276) 
-8.382972593122929

>  <distance_score>  (276) 
2.8922082417776225

>  <path>  (276) 
/opt/xchem-fragalysis-2/maxwin/BulkDock/SCRATCH/505734/C2275-P115/C2275-P115.minimised.mol

>  <scratch_subdir>  (276) 
/opt/xchem-fragalysis-2/maxwin/BulkDock/SCRATCH/505734/C2275-P115

>  <fragmenstein_runtime>  (276) 
17.384506702423096

>  <fragmenstein_outcome>  (276) 
too moved

>  <fragmenstein_mode>  (276) 
expansion

>  <fragmenstein_error>  (276) 


$$$$
C3310-P107
     RDKit          3D

 41 44  0  0  0  0  0  0  0  0999 V2000
  -12.0800  -27.2686   28.9663 N   0  0  0  0  0  0  0  0  0  0  0  0
  -10.7545  -26.7436   29.3510 C   0  0  0  0  0  0  0  0  0  0  0  0
  -10.4545  -27.0653   30.8259 C   0  0  0  0  0  0  0  0  0  0  0  0
  -10.3424  -25.8578   31.7669 C   0  0  0  0  0  0  0  0  0  0  0  0
  -11.2669  -24.7351   31.4004 C   0  0  0  0  0  0  0  0  0  0  0  0
  -11.4115  -24.4864   30.0861 C   0  0  0  0  0  0  0  0  0  0  0  0
  -10.6544  -25.2561   29.0492 C   0  0  0  0  0  0  0  0  0  0  0  0
  -12.3652  -23.4986   29.5571 C   0  0  0  0  0  0  0  0  0  0  0  0
  -13.1175  -23.8155   28.6394 O   0  0  0  0  0  0  0  0  0  0  0  0
  -12.2210  -22.1089   30.1026 C   0  0  0  0  0  0  0  0  0  0  0  0
  -12.7376  -21.9649   31.4323 N   0  0  0  0  0  0  0  0  0  0  0  0
  -14.0750  -21.8703   31.8333 C   0  0  0  0  0  0  0  0  0  0  0  0
  -15.1005  -21.3771   31.1459 N   0  0  0  0  0  0  0  0  0  0  0  0
  -16.2847  -21.2912   31.8152 C   0  0  0  0  0  0  0  0  0  0  0  0
  -16.4672  -21.6012   33.1515 C   0  0  0  0  0  0  0  0  0  0  0  0
  -15.3496  -21.9662   33.8776 C   0  0  0  0  0  0  0  0  0  0  0  0
  -14.1415  -22.0347   33.2076 C   0  0  0  0  0  0  0  0  0  0  0  0
  -12.8249  -22.0708   33.7746 N   0  0  0  0  0  0  0  0  0  0  0  0
  -12.4693  -20.6863   34.1636 C   0  0  0  0  0  0  0  0  0  0  0  0
  -13.5642  -19.8964   34.3681 F   0  0  0  0  0  0  0  0  0  0  0  0
  -12.0706  -22.5319   32.5821 C   0  0  0  0  0  0  0  0  0  0  0  0
  -12.0078  -24.0784   32.5530 C   0  0  0  0  0  0  0  0  0  0  0  0
  -12.1856  -27.1647   27.9521 H   0  0  0  0  0  0  0  0  0  0  0  0
  -12.7790  -26.6190   29.3475 H   0  0  0  0  0  0  0  0  0  0  0  0
  -10.0141  -27.2346   28.7219 H   0  0  0  0  0  0  0  0  0  0  0  0
   -9.5106  -27.6180   30.8690 H   0  0  0  0  0  0  0  0  0  0  0  0
  -11.2002  -27.7622   31.2260 H   0  0  0  0  0  0  0  0  0  0  0  0
  -10.5474  -26.1910   32.7867 H   0  0  0  0  0  0  0  0  0  0  0  0
   -9.3135  -25.4749   31.7669 H   0  0  0  0  0  0  0  0  0  0  0  0
  -11.0059  -25.0482   28.0311 H   0  0  0  0  0  0  0  0  0  0  0  0
   -9.6024  -24.9462   29.0656 H   0  0  0  0  0  0  0  0  0  0  0  0
  -12.6090  -21.3880   29.3912 H   0  0  0  0  0  0  0  0  0  0  0  0
  -11.1541  -21.8613   30.1154 H   0  0  0  0  0  0  0  0  0  0  0  0
  -17.1307  -20.9794   31.2101 H   0  0  0  0  0  0  0  0  0  0  0  0
  -17.4443  -21.5385   33.6129 H   0  0  0  0  0  0  0  0  0  0  0  0
  -15.4271  -22.1666   34.9330 H   0  0  0  0  0  0  0  0  0  0  0  0
  -11.9488  -20.6925   35.1141 H   0  0  0  0  0  0  0  0  0  0  0  0
  -11.8236  -20.1881   33.4360 H   0  0  0  0  0  0  0  0  0  0  0  0
  -11.0403  -22.1657   32.6103 H   0  0  0  0  0  0  0  0  0  0  0  0
  -13.0125  -24.5063   32.5916 H   0  0  0  0  0  0  0  0  0  0  0  0
  -11.5365  -24.3851   33.4962 H   0  0  0  0  0  0  0  0  0  0  0  0
  1  2  1  0
  2  3  1  0
  3  4  1  0
  4  5  1  0
  5  6  2  0
  6  7  1  0
  6  8  1  0
  8  9  2  0
  8 10  1  0
 10 11  1  0
 11 12  1  0
 12 13  2  0
 13 14  1  0
 14 15  2  0
 15 16  1  0
 16 17  2  0
 17 18  1  0
 18 19  1  0
 19 20  1  0
 18 21  1  0
 21 22  1  0
  7  2  1  0
 21 11  1  0
 22  5  1  0
 17 12  1  0
  1 23  1  0
  1 24  1  0
  2 25  1  0
  3 26  1  0
  3 27  1  0
  4 28  1  0
  4 29  1  0
  7 30  1  0
  7 31  1  0
 10 32  1  0
 10 33  1  0
 14 34  1  0
 15 35  1  0
 16 36  1  0
 19 37  1  0
 19 38  1  0
 21 39  1  0
 22 40  1  0
 22 41  1  0
M  END
>  <Energy>  (277) 
75.958184592677

>  <compound_id>  (277) 
3310

>  <target_id>  (277) 
1

>  <reference_id>  (277) 
107

>  <inspiration_ids>  (277) 
[107, 123]

>  <energy_score>  (277) 
-16.354421398756614

>  <distance_score>  (277) 
2.627459970695465

>  <path>  (277) 
/opt/xchem-fragalysis-2/maxwin/BulkDock/SCRATCH/505734/C3310-P107/C3310-P107.minimised.mol

>  <scratch_subdir>  (277) 
/opt/xchem-fragalysis-2/maxwin/BulkDock/SCRATCH/505734/C3310-P107

>  <fragmenstein_runtime>  (277) 
5.135153770446777

>  <fragmenstein_outcome>  (277) 
too moved

>  <fragmenstein_mode>  (277) 
expansion

>  <fragmenstein_error>  (277) 


$$$$
C3310-P123
     RDKit          3D

 41 44  0  0  0  0  0  0  0  0999 V2000
  -10.9787  -27.4476   31.5083 N   0  0  0  0  0  0  0  0  0  0  0  0
  -10.2237  -26.4361   30.7687 C   0  0  0  0  0  0  0  0  0  0  0  0
   -9.3791  -25.5531   31.6714 C   0  0  0  0  0  0  0  0  0  0  0  0
  -10.2002  -24.8587   32.7427 C   0  0  0  0  0  0  0  0  0  0  0  0
  -11.4600  -24.2436   32.1978 C   0  0  0  0  0  0  0  0  0  0  0  0
  -11.7746  -24.4588   30.9008 C   0  0  0  0  0  0  0  0  0  0  0  0
  -11.1356  -25.5018   30.0061 C   0  0  0  0  0  0  0  0  0  0  0  0
  -12.7678  -23.7079   30.1287 C   0  0  0  0  0  0  0  0  0  0  0  0
  -13.1160  -24.1275   29.0122 O   0  0  0  0  0  0  0  0  0  0  0  0
  -13.1777  -22.3441   30.5307 C   0  0  0  0  0  0  0  0  0  0  0  0
  -13.4587  -21.9248   31.8596 N   0  0  0  0  0  0  0  0  0  0  0  0
  -14.7394  -21.5242   32.2384 C   0  0  0  0  0  0  0  0  0  0  0  0
  -15.7345  -21.1807   31.4043 N   0  0  0  0  0  0  0  0  0  0  0  0
  -16.9026  -20.8460   31.9914 C   0  0  0  0  0  0  0  0  0  0  0  0
  -17.0650  -20.6999   33.3590 C   0  0  0  0  0  0  0  0  0  0  0  0
  -15.9628  -20.9213   34.1792 C   0  0  0  0  0  0  0  0  0  0  0  0
  -14.7747  -21.3331   33.6024 C   0  0  0  0  0  0  0  0  0  0  0  0
  -13.4972  -21.5270   34.1916 N   0  0  0  0  0  0  0  0  0  0  0  0
  -12.9744  -20.2725   34.7101 C   0  0  0  0  0  0  0  0  0  0  0  0
  -13.9171  -19.5468   35.3674 F   0  0  0  0  0  0  0  0  0  0  0  0
  -12.6842  -22.0719   33.0417 C   0  0  0  0  0  0  0  0  0  0  0  0
  -12.3112  -23.5352   33.2548 C   0  0  0  0  0  0  0  0  0  0  0  0
  -10.3191  -27.8560   32.1868 H   0  0  0  0  0  0  0  0  0  0  0  0
  -11.6663  -26.9612   32.0787 H   0  0  0  0  0  0  0  0  0  0  0  0
   -9.6096  -26.9551   30.0364 H   0  0  0  0  0  0  0  0  0  0  0  0
   -8.9150  -24.8041   31.0365 H   0  0  0  0  0  0  0  0  0  0  0  0
   -8.5435  -26.0711   32.1208 H   0  0  0  0  0  0  0  0  0  0  0  0
  -10.4487  -25.5431   33.5597 H   0  0  0  0  0  0  0  0  0  0  0  0
   -9.5675  -24.0660   33.1457 H   0  0  0  0  0  0  0  0  0  0  0  0
  -11.8957  -26.1059   29.4930 H   0  0  0  0  0  0  0  0  0  0  0  0
  -10.5574  -24.9893   29.2243 H   0  0  0  0  0  0  0  0  0  0  0  0
  -14.1519  -22.3660   30.0972 H   0  0  0  0  0  0  0  0  0  0  0  0
  -12.5213  -21.6392   30.0122 H   0  0  0  0  0  0  0  0  0  0  0  0
  -17.7357  -20.7019   31.3116 H   0  0  0  0  0  0  0  0  0  0  0  0
  -18.0247  -20.4199   33.7774 H   0  0  0  0  0  0  0  0  0  0  0  0
  -16.0610  -20.7761   35.2429 H   0  0  0  0  0  0  0  0  0  0  0  0
  -12.2055  -20.4993   35.4205 H   0  0  0  0  0  0  0  0  0  0  0  0
  -12.5040  -19.6281   33.9718 H   0  0  0  0  0  0  0  0  0  0  0  0
  -11.7746  -21.4807   32.9096 H   0  0  0  0  0  0  0  0  0  0  0  0
  -13.2213  -24.1125   33.3975 H   0  0  0  0  0  0  0  0  0  0  0  0
  -11.8170  -23.6233   34.2247 H   0  0  0  0  0  0  0  0  0  0  0  0
  1  2  1  0
  2  3  1  0
  3  4  1  0
  4  5  1  0
  5  6  2  0
  6  7  1  0
  6  8  1  0
  8  9  2  0
  8 10  1  0
 10 11  1  0
 11 12  1  0
 12 13  2  0
 13 14  1  0
 14 15  2  0
 15 16  1  0
 16 17  2  0
 17 18  1  0
 18 19  1  0
 19 20  1  0
 18 21  1  0
 21 22  1  0
  7  2  1  0
 21 11  1  0
 22  5  1  0
 17 12  1  0
  1 23  1  0
  1 24  1  0
  2 25  1  0
  3 26  1  0
  3 27  1  0
  4 28  1  0
  4 29  1  0
  7 30  1  0
  7 31  1  0
 10 32  1  0
 10 33  1  0
 14 34  1  0
 15 35  1  0
 16 36  1  0
 19 37  1  0
 19 38  1  0
 21 39  1  0
 22 40  1  0
 22 41  1  0
M  END
>  <Energy>  (278) 
76.745383704874342

>  <compound_id>  (278) 
3310

>  <target_id>  (278) 
1

>  <reference_id>  (278) 
123

>  <inspiration_ids>  (278) 
[107, 123]

>  <energy_score>  (278) 
-15.567222286560195

>  <distance_score>  (278) 
2.8738109940092205

>  <path>  (278) 
/opt/xchem-fragalysis-2/maxwin/BulkDock/SCRATCH/505734/C3310-P123/C3310-P123.minimised.mol

>  <scratch_subdir>  (278) 
/opt/xchem-fragalysis-2/maxwin/BulkDock/SCRATCH/505734/C3310-P123

>  <fragmenstein_runtime>  (278) 
4.821937084197998

>  <fragmenstein_outcome>  (278) 
too moved

>  <fragmenstein_mode>  (278) 
expansion

>  <fragmenstein_error>  (278) 


$$$$
C3311-P110
     RDKit          3D

 32 33  0  0  0  0  0  0  0  0999 V2000
  -11.1567  -27.0870   31.6644 C   0  0  0  0  0  0  0  0  0  0  0  0
  -11.1327  -25.5315   31.6243 C   0  0  0  0  0  0  0  0  0  0  0  0
  -10.0933  -25.0935   32.4120 C   0  0  0  0  0  0  0  0  0  0  0  0
   -8.9276  -25.1331   31.7028 C   0  0  0  0  0  0  0  0  0  0  0  0
   -8.8895  -25.2918   30.3497 N   0  0  0  0  0  0  0  0  0  0  0  0
  -10.0538  -25.2771   29.6632 C   0  0  0  0  0  0  0  0  0  0  0  0
  -10.2211  -25.9820   28.3386 C   0  0  0  0  0  0  0  0  0  0  0  0
   -9.0574  -26.5003   27.8692 F   0  0  0  0  0  0  0  0  0  0  0  0
  -11.0416  -27.0623   28.4713 F   0  0  0  0  0  0  0  0  0  0  0  0
  -10.8237  -24.8238   27.0512 S   0  0  0  0  0  0  0  0  0  0  0  0
  -12.4598  -25.3166   26.5842 C   0  0  0  0  0  0  0  0  0  0  0  0
  -13.0538  -26.5619   26.7487 C   0  0  0  0  0  0  0  0  0  0  0  0
  -14.3785  -26.7867   26.3498 C   0  0  0  0  0  0  0  0  0  0  0  0
  -15.1353  -25.7799   25.7605 C   0  0  0  0  0  0  0  0  0  0  0  0
  -16.4046  -26.0569   25.2472 N   0  0  0  0  0  0  0  0  0  0  0  0
  -14.5097  -24.5727   25.4831 C   0  0  0  0  0  0  0  0  0  0  0  0
  -13.1981  -24.3413   25.9076 C   0  0  0  0  0  0  0  0  0  0  0  0
  -11.1902  -24.9744   30.3483 C   0  0  0  0  0  0  0  0  0  0  0  0
  -11.7186  -23.6573   30.1570 N   0  0  0  0  0  0  0  0  0  0  0  0
  -11.0825  -27.4161   32.6951 H   0  0  0  0  0  0  0  0  0  0  0  0
  -12.0375  -27.5339   31.2285 H   0  0  0  0  0  0  0  0  0  0  0  0
  -10.3042  -27.5178   31.1266 H   0  0  0  0  0  0  0  0  0  0  0  0
  -10.0635  -25.2588   33.4811 H   0  0  0  0  0  0  0  0  0  0  0  0
   -7.9678  -25.1810   32.1960 H   0  0  0  0  0  0  0  0  0  0  0  0
  -12.5165  -27.4129   27.1469 H   0  0  0  0  0  0  0  0  0  0  0  0
  -14.8089  -27.7738   26.4925 H   0  0  0  0  0  0  0  0  0  0  0  0
  -16.9772  -25.2241   25.1334 H   0  0  0  0  0  0  0  0  0  0  0  0
  -16.9015  -26.7770   25.7622 H   0  0  0  0  0  0  0  0  0  0  0  0
  -15.0317  -23.7845   24.9471 H   0  0  0  0  0  0  0  0  0  0  0  0
  -12.7519  -23.3748   25.6786 H   0  0  0  0  0  0  0  0  0  0  0  0
  -11.2231  -23.0001   30.7564 H   0  0  0  0  0  0  0  0  0  0  0  0
  -11.6849  -23.3538   29.1864 H   0  0  0  0  0  0  0  0  0  0  0  0
  1  2  1  0
  2  3  2  0
  3  4  1  0
  4  5  2  0
  5  6  1  0
  6  7  1  0
  7  8  1  0
  7  9  1  0
  7 10  1  0
 10 11  1  0
 11 12  2  0
 12 13  1  0
 13 14  2  0
 14 15  1  0
 14 16  1  0
 16 17  2  0
  6 18  2  0
 18 19  1  0
 18  2  1  0
 17 11  1  0
  1 20  1  0
  1 21  1  0
  1 22  1  0
  3 23  1  0
  4 24  1  0
 12 25  1  0
 13 26  1  0
 15 27  1  0
 15 28  1  0
 16 29  1  0
 17 30  1  0
 19 31  1  0
 19 32  1  0
M  END
>  <Energy>  (279) 
188.10225878464774

>  <compound_id>  (279) 
3311

>  <target_id>  (279) 
1

>  <reference_id>  (279) 
110

>  <inspiration_ids>  (279) 
[110, 16]

>  <energy_score>  (279) 
51.293895167154005

>  <distance_score>  (279) 
2.9228950525626023

>  <path>  (279) 
/opt/xchem-fragalysis-2/maxwin/BulkDock/SCRATCH/505734/C3311-P110/C3311-P110.minimised.mol

>  <scratch_subdir>  (279) 
/opt/xchem-fragalysis-2/maxwin/BulkDock/SCRATCH/505734/C3311-P110

>  <fragmenstein_runtime>  (279) 
3.572535753250122

>  <fragmenstein_outcome>  (279) 
too moved

>  <fragmenstein_mode>  (279) 
expansion

>  <fragmenstein_error>  (279) 


$$$$
C3311-P16
     RDKit          3D

 32 33  0  0  0  0  0  0  0  0999 V2000
  -12.7760  -28.8116   29.8939 C   0  0  0  0  0  0  0  0  0  0  0  0
  -12.0693  -27.4887   29.6903 C   0  0  0  0  0  0  0  0  0  0  0  0
  -11.1620  -26.9603   30.6231 C   0  0  0  0  0  0  0  0  0  0  0  0
  -10.6746  -25.6828   30.4448 C   0  0  0  0  0  0  0  0  0  0  0  0
  -10.9256  -24.9585   29.3426 N   0  0  0  0  0  0  0  0  0  0  0  0
  -11.6710  -25.5434   28.3506 C   0  0  0  0  0  0  0  0  0  0  0  0
  -11.4072  -25.0497   26.9328 C   0  0  0  0  0  0  0  0  0  0  0  0
  -10.2527  -24.3131   26.9464 F   0  0  0  0  0  0  0  0  0  0  0  0
  -11.1151  -26.0874   26.0897 F   0  0  0  0  0  0  0  0  0  0  0  0
  -12.6047  -23.9463   26.1502 S   0  0  0  0  0  0  0  0  0  0  0  0
  -13.8881  -24.9355   25.4221 C   0  0  0  0  0  0  0  0  0  0  0  0
  -13.8514  -26.2972   25.1828 C   0  0  0  0  0  0  0  0  0  0  0  0
  -15.0065  -27.0115   24.8450 C   0  0  0  0  0  0  0  0  0  0  0  0
  -16.2260  -26.3678   24.7112 C   0  0  0  0  0  0  0  0  0  0  0  0
  -17.3588  -27.0729   24.3150 N   0  0  0  0  0  0  0  0  0  0  0  0
  -16.2274  -24.9825   24.7435 C   0  0  0  0  0  0  0  0  0  0  0  0
  -15.0590  -24.2797   25.0491 C   0  0  0  0  0  0  0  0  0  0  0  0
  -12.3143  -26.7767   28.5198 C   0  0  0  0  0  0  0  0  0  0  0  0
  -13.2969  -27.2464   27.6517 N   0  0  0  0  0  0  0  0  0  0  0  0
  -12.6071  -29.2229   30.8919 H   0  0  0  0  0  0  0  0  0  0  0  0
  -13.8616  -28.7338   29.7851 H   0  0  0  0  0  0  0  0  0  0  0  0
  -12.4545  -29.5392   29.1401 H   0  0  0  0  0  0  0  0  0  0  0  0
  -10.8669  -27.5068   31.5155 H   0  0  0  0  0  0  0  0  0  0  0  0
  -10.0254  -25.2218   31.1843 H   0  0  0  0  0  0  0  0  0  0  0  0
  -12.9349  -26.8530   25.3081 H   0  0  0  0  0  0  0  0  0  0  0  0
  -14.9496  -28.0879   24.7230 H   0  0  0  0  0  0  0  0  0  0  0  0
  -18.2324  -26.5879   24.5026 H   0  0  0  0  0  0  0  0  0  0  0  0
  -17.3855  -28.0398   24.6195 H   0  0  0  0  0  0  0  0  0  0  0  0
  -17.1378  -24.4282   24.5282 H   0  0  0  0  0  0  0  0  0  0  0  0
  -15.0897  -23.1933   25.0112 H   0  0  0  0  0  0  0  0  0  0  0  0
  -13.4971  -28.2408   27.6674 H   0  0  0  0  0  0  0  0  0  0  0  0
  -14.1676  -26.7176   27.7035 H   0  0  0  0  0  0  0  0  0  0  0  0
  1  2  1  0
  2  3  2  0
  3  4  1  0
  4  5  2  0
  5  6  1  0
  6  7  1  0
  7  8  1  0
  7  9  1  0
  7 10  1  0
 10 11  1  0
 11 12  2  0
 12 13  1  0
 13 14  2  0
 14 15  1  0
 14 16  1  0
 16 17  2  0
  6 18  2  0
 18 19  1  0
 18  2  1  0
 17 11  1  0
  1 20  1  0
  1 21  1  0
  1 22  1  0
  3 23  1  0
  4 24  1  0
 12 25  1  0
 13 26  1  0
 15 27  1  0
 15 28  1  0
 16 29  1  0
 17 30  1  0
 19 31  1  0
 19 32  1  0
M  END
>  <Energy>  (280) 
125.34911298307416

>  <compound_id>  (280) 
3311

>  <target_id>  (280) 
1

>  <reference_id>  (280) 
16

>  <inspiration_ids>  (280) 
[110, 16]

>  <energy_score>  (280) 
-11.459250634421863

>  <distance_score>  (280) 
3.8979655000243945

>  <path>  (280) 
/opt/xchem-fragalysis-2/maxwin/BulkDock/SCRATCH/505734/C3311-P16/C3311-P16.minimised.mol

>  <scratch_subdir>  (280) 
/opt/xchem-fragalysis-2/maxwin/BulkDock/SCRATCH/505734/C3311-P16

>  <fragmenstein_runtime>  (280) 
3.7293341159820557

>  <fragmenstein_outcome>  (280) 
too moved

>  <fragmenstein_mode>  (280) 
expansion

>  <fragmenstein_error>  (280) 


$$$$
C1297-P110
     RDKit          3D

 42 44  0  0  0  0  0  0  0  0999 V2000
  -13.3275  -22.2540   33.3738 C   0  0  0  0  0  0  0  0  0  0  0  0
  -12.4118  -23.4511   33.6302 C   0  0  0  0  0  0  0  0  0  0  0  0
  -11.4297  -23.7379   32.6019 N   0  0  0  0  0  0  0  0  0  0  0  0
  -11.0613  -22.8678   31.6445 C   0  0  0  0  0  0  0  0  0  0  0  0
  -11.0463  -23.6043   30.4602 C   0  0  0  0  0  0  0  0  0  0  0  0
  -11.1814  -23.2775   29.0135 C   0  0  0  0  0  0  0  0  0  0  0  0
  -11.3967  -21.9671   28.6008 O   0  0  0  0  0  0  0  0  0  0  0  0
  -11.7752  -21.2373   29.6974 C   0  0  0  0  0  0  0  0  0  0  0  0
  -12.3419  -20.1288   29.2482 F   0  0  0  0  0  0  0  0  0  0  0  0
  -10.7919  -24.9247   30.8119 C   0  0  0  0  0  0  0  0  0  0  0  0
  -10.5407  -26.0767   30.0530 C   0  0  0  0  0  0  0  0  0  0  0  0
   -9.9942  -26.1082   28.3592 S   0  0  0  0  0  0  0  0  0  0  0  0
  -11.4656  -26.0442   27.3748 C   0  0  0  0  0  0  0  0  0  0  0  0
  -12.4296  -27.0385   27.4381 C   0  0  0  0  0  0  0  0  0  0  0  0
  -13.6388  -26.8937   26.7481 C   0  0  0  0  0  0  0  0  0  0  0  0
  -13.9169  -25.7443   26.0142 C   0  0  0  0  0  0  0  0  0  0  0  0
  -15.0884  -25.6505   25.2565 N   0  0  0  0  0  0  0  0  0  0  0  0
  -12.9108  -24.7988   25.8706 C   0  0  0  0  0  0  0  0  0  0  0  0
  -11.6838  -24.9677   26.5115 C   0  0  0  0  0  0  0  0  0  0  0  0
  -10.6787  -27.2329   30.7510 C   0  0  0  0  0  0  0  0  0  0  0  0
  -10.8523  -27.2265   32.1135 C   0  0  0  0  0  0  0  0  0  0  0  0
  -10.8513  -26.0946   32.9092 C   0  0  0  0  0  0  0  0  0  0  0  0
  -10.9736  -24.9546   32.1952 C   0  0  0  0  0  0  0  0  0  0  0  0
  -14.1957  -22.2908   34.0380 H   0  0  0  0  0  0  0  0  0  0  0  0
  -12.7956  -21.3163   33.5659 H   0  0  0  0  0  0  0  0  0  0  0  0
  -13.7066  -22.2110   32.3513 H   0  0  0  0  0  0  0  0  0  0  0  0
  -13.0138  -24.3435   33.7536 H   0  0  0  0  0  0  0  0  0  0  0  0
  -11.8938  -23.2996   34.5654 H   0  0  0  0  0  0  0  0  0  0  0  0
  -11.0946  -21.8218   31.9020 H   0  0  0  0  0  0  0  0  0  0  0  0
  -12.0624  -23.8202   28.6691 H   0  0  0  0  0  0  0  0  0  0  0  0
  -10.2877  -23.5687   28.4677 H   0  0  0  0  0  0  0  0  0  0  0  0
  -12.5599  -21.7259   30.2743 H   0  0  0  0  0  0  0  0  0  0  0  0
  -10.8897  -20.9273   30.2421 H   0  0  0  0  0  0  0  0  0  0  0  0
  -12.2645  -27.9281   28.0380 H   0  0  0  0  0  0  0  0  0  0  0  0
  -14.3795  -27.6856   26.8111 H   0  0  0  0  0  0  0  0  0  0  0  0
  -15.3313  -24.6859   25.0416 H   0  0  0  0  0  0  0  0  0  0  0  0
  -15.8749  -26.1420   25.6704 H   0  0  0  0  0  0  0  0  0  0  0  0
  -13.0648  -23.9065   25.2674 H   0  0  0  0  0  0  0  0  0  0  0  0
  -10.9234  -24.2042   26.3680 H   0  0  0  0  0  0  0  0  0  0  0  0
  -10.5728  -28.1713   30.2768 H   0  0  0  0  0  0  0  0  0  0  0  0
  -10.7991  -28.1990   32.5644 H   0  0  0  0  0  0  0  0  0  0  0  0
  -10.8964  -26.1092   33.9846 H   0  0  0  0  0  0  0  0  0  0  0  0
  1  2  1  0
  2  3  1  0
  3  4  1  0
  4  5  2  0
  5  6  1  0
  6  7  1  0
  7  8  1  0
  8  9  1  0
  5 10  1  0
 10 11  2  0
 11 12  1  0
 12 13  1  0
 13 14  2  0
 14 15  1  0
 15 16  2  0
 16 17  1  0
 16 18  1  0
 18 19  2  0
 11 20  1  0
 20 21  2  0
 21 22  1  0
 22 23  2  0
 23  3  1  0
 23 10  1  0
 19 13  1  0
  1 24  1  0
  1 25  1  0
  1 26  1  0
  2 27  1  0
  2 28  1  0
  4 29  1  0
  6 30  1  0
  6 31  1  0
  8 32  1  0
  8 33  1  0
 14 34  1  0
 15 35  1  0
 17 36  1  0
 17 37  1  0
 18 38  1  0
 19 39  1  0
 20 40  1  0
 21 41  1  0
 22 42  1  0
M  END
>  <Energy>  (281) 
94.929797335224919

>  <compound_id>  (281) 
1297

>  <target_id>  (281) 
1

>  <reference_id>  (281) 
110

>  <inspiration_ids>  (281) 
[110, 34]

>  <energy_score>  (281) 
35.89905688074526

>  <distance_score>  (281) 
1.809180445466098

>  <path>  (281) 
/opt/xchem-fragalysis-2/maxwin/BulkDock/SCRATCH/505734/C1297-P110/C1297-P110.minimised.mol

>  <scratch_subdir>  (281) 
/opt/xchem-fragalysis-2/maxwin/BulkDock/SCRATCH/505734/C1297-P110

>  <fragmenstein_runtime>  (281) 
4.3863139152526855

>  <fragmenstein_outcome>  (281) 
too moved

>  <fragmenstein_mode>  (281) 
expansion

>  <fragmenstein_error>  (281) 


$$$$
C1297-P34
     RDKit          3D

 42 44  0  0  0  0  0  0  0  0999 V2000
  -12.7448  -23.0714   34.7468 C   0  0  0  0  0  0  0  0  0  0  0  0
  -11.3238  -22.7118   34.3341 C   0  0  0  0  0  0  0  0  0  0  0  0
  -10.9785  -23.2378   33.0324 N   0  0  0  0  0  0  0  0  0  0  0  0
  -11.6529  -22.8450   31.9335 C   0  0  0  0  0  0  0  0  0  0  0  0
  -11.0211  -23.3855   30.8454 C   0  0  0  0  0  0  0  0  0  0  0  0
  -11.2544  -22.9719   29.4684 C   0  0  0  0  0  0  0  0  0  0  0  0
  -11.8461  -21.6945   29.4074 O   0  0  0  0  0  0  0  0  0  0  0  0
  -10.8805  -20.7705   29.8094 C   0  0  0  0  0  0  0  0  0  0  0  0
   -9.8449  -20.9237   28.9639 F   0  0  0  0  0  0  0  0  0  0  0  0
  -10.0831  -24.3299   31.2851 C   0  0  0  0  0  0  0  0  0  0  0  0
   -9.2545  -25.2532   30.6304 C   0  0  0  0  0  0  0  0  0  0  0  0
   -9.0459  -25.3981   28.8584 S   0  0  0  0  0  0  0  0  0  0  0  0
  -10.5880  -25.4568   27.9795 C   0  0  0  0  0  0  0  0  0  0  0  0
  -11.5912  -26.3623   28.2728 C   0  0  0  0  0  0  0  0  0  0  0  0
  -12.7858  -26.4018   27.5175 C   0  0  0  0  0  0  0  0  0  0  0  0
  -12.9972  -25.5364   26.4498 C   0  0  0  0  0  0  0  0  0  0  0  0
  -14.1930  -25.5482   25.7279 N   0  0  0  0  0  0  0  0  0  0  0  0
  -12.0623  -24.5298   26.2617 C   0  0  0  0  0  0  0  0  0  0  0  0
  -10.8327  -24.5561   26.9351 C   0  0  0  0  0  0  0  0  0  0  0  0
   -8.3726  -25.9365   31.4656 C   0  0  0  0  0  0  0  0  0  0  0  0
   -8.2127  -25.6501   32.8159 C   0  0  0  0  0  0  0  0  0  0  0  0
   -8.9636  -24.6803   33.4425 C   0  0  0  0  0  0  0  0  0  0  0  0
   -9.9636  -24.0966   32.6712 C   0  0  0  0  0  0  0  0  0  0  0  0
  -13.4584  -23.0180   33.9192 H   0  0  0  0  0  0  0  0  0  0  0  0
  -12.7826  -24.0797   35.1664 H   0  0  0  0  0  0  0  0  0  0  0  0
  -13.1163  -22.3847   35.5031 H   0  0  0  0  0  0  0  0  0  0  0  0
  -10.5837  -23.0695   35.0406 H   0  0  0  0  0  0  0  0  0  0  0  0
  -11.2229  -21.6225   34.2658 H   0  0  0  0  0  0  0  0  0  0  0  0
  -12.4761  -22.1438   31.9767 H   0  0  0  0  0  0  0  0  0  0  0  0
  -10.3204  -22.9445   28.9069 H   0  0  0  0  0  0  0  0  0  0  0  0
  -11.9112  -23.6616   28.9772 H   0  0  0  0  0  0  0  0  0  0  0  0
  -10.5359  -20.8467   30.8428 H   0  0  0  0  0  0  0  0  0  0  0  0
  -11.3415  -19.8211   29.6802 H   0  0  0  0  0  0  0  0  0  0  0  0
  -11.4157  -27.0799   29.0660 H   0  0  0  0  0  0  0  0  0  0  0  0
  -13.5297  -27.1579   27.7450 H   0  0  0  0  0  0  0  0  0  0  0  0
  -14.1145  -25.1051   24.8146 H   0  0  0  0  0  0  0  0  0  0  0  0
  -14.6669  -26.4416   25.6928 H   0  0  0  0  0  0  0  0  0  0  0  0
  -12.2567  -23.7126   25.5705 H   0  0  0  0  0  0  0  0  0  0  0  0
  -10.0974  -23.7929   26.6941 H   0  0  0  0  0  0  0  0  0  0  0  0
   -7.6992  -26.6662   31.0518 H   0  0  0  0  0  0  0  0  0  0  0  0
   -7.4529  -26.1933   33.3578 H   0  0  0  0  0  0  0  0  0  0  0  0
   -8.8361  -24.4633   34.4945 H   0  0  0  0  0  0  0  0  0  0  0  0
  1  2  1  0
  2  3  1  0
  3  4  1  0
  4  5  2  0
  5  6  1  0
  6  7  1  0
  7  8  1  0
  8  9  1  0
  5 10  1  0
 10 11  2  0
 11 12  1  0
 12 13  1  0
 13 14  2  0
 14 15  1  0
 15 16  2  0
 16 17  1  0
 16 18  1  0
 18 19  2  0
 11 20  1  0
 20 21  2  0
 21 22  1  0
 22 23  2  0
 23  3  1  0
 23 10  1  0
 19 13  1  0
  1 24  1  0
  1 25  1  0
  1 26  1  0
  2 27  1  0
  2 28  1  0
  4 29  1  0
  6 30  1  0
  6 31  1  0
  8 32  1  0
  8 33  1  0
 14 34  1  0
 15 35  1  0
 17 36  1  0
 17 37  1  0
 18 38  1  0
 19 39  1  0
 20 40  1  0
 21 41  1  0
 22 42  1  0
M  END
>  <Energy>  (282) 
58.551860336478136

>  <compound_id>  (282) 
1297

>  <target_id>  (282) 
1

>  <reference_id>  (282) 
34

>  <inspiration_ids>  (282) 
[110, 34]

>  <energy_score>  (282) 
-0.47888011800162644

>  <distance_score>  (282) 
1.7562969518575178

>  <path>  (282) 
/opt/xchem-fragalysis-2/maxwin/BulkDock/SCRATCH/505734/C1297-P34/C1297-P34.minimised.mol

>  <scratch_subdir>  (282) 
/opt/xchem-fragalysis-2/maxwin/BulkDock/SCRATCH/505734/C1297-P34

>  <fragmenstein_runtime>  (282) 
3.5197560787200928

>  <fragmenstein_outcome>  (282) 
too moved

>  <fragmenstein_mode>  (282) 
expansion

>  <fragmenstein_error>  (282) 


$$$$
C3314-P110
     RDKit          3D

 47 49  0  0  0  0  0  0  0  0999 V2000
   -9.3694  -23.9881   27.7204 N   0  0  0  0  0  0  0  0  0  0  0  0
  -10.0290  -25.0773   27.1598 C   0  0  0  0  0  0  0  0  0  0  0  0
  -10.7570  -24.9738   25.9879 C   0  0  0  0  0  0  0  0  0  0  0  0
  -11.5901  -26.0113   25.6384 C   0  0  0  0  0  0  0  0  0  0  0  0
  -11.8985  -26.9395   26.6011 C   0  0  0  0  0  0  0  0  0  0  0  0
  -13.3232  -27.3463   26.8670 C   0  0  0  0  0  0  0  0  0  0  0  0
  -13.3817  -28.5508   27.7432 N   0  0  0  0  0  0  0  0  0  0  0  0
  -14.1808  -26.1233   27.3829 C   0  0  0  0  0  0  0  0  0  0  0  0
  -12.9875  -24.6176   28.3390 S   0  0  0  0  0  0  0  0  0  0  0  0
  -11.7429  -25.1247   29.7778 C   0  0  0  0  0  0  0  0  0  0  0  0
  -10.5564  -24.4864   29.6553 F   0  0  0  0  0  0  0  0  0  0  0  0
  -11.5192  -26.4527   29.8618 F   0  0  0  0  0  0  0  0  0  0  0  0
  -15.4329  -26.6415   28.2011 C   0  0  0  0  0  0  0  0  0  0  0  0
  -16.4854  -27.2675   27.2916 C   0  0  0  0  0  0  0  0  0  0  0  0
  -17.1875  -26.1559   26.5556 C   0  0  0  0  0  0  0  0  0  0  0  0
  -17.7375  -26.5997   25.3051 N   0  0  0  0  0  0  0  0  0  0  0  0
  -16.3278  -25.0318   26.2932 N   0  0  0  0  0  0  0  0  0  0  0  0
  -14.8653  -25.3432   26.1319 C   0  0  0  0  0  0  0  0  0  0  0  0
  -14.8259  -25.8014   24.6139 C   0  0  0  0  0  0  0  0  0  0  0  0
  -14.8474  -24.3040   24.2435 C   0  0  0  0  0  0  0  0  0  0  0  0
  -14.2169  -24.0235   25.5754 C   0  0  0  0  0  0  0  0  0  0  0  0
  -10.9402  -27.1767   27.5530 C   0  0  0  0  0  0  0  0  0  0  0  0
   -9.9072  -26.3044   27.7583 C   0  0  0  0  0  0  0  0  0  0  0  0
  -10.0484  -23.2281   27.7724 H   0  0  0  0  0  0  0  0  0  0  0  0
   -9.1293  -24.2216   28.6820 H   0  0  0  0  0  0  0  0  0  0  0  0
  -10.7313  -24.0804   25.3773 H   0  0  0  0  0  0  0  0  0  0  0  0
  -12.1756  -25.9191   24.7547 H   0  0  0  0  0  0  0  0  0  0  0  0
  -13.7813  -27.6473   25.9321 H   0  0  0  0  0  0  0  0  0  0  0  0
  -14.3335  -28.9009   27.8054 H   0  0  0  0  0  0  0  0  0  0  0  0
  -13.0892  -28.2909   28.6817 H   0  0  0  0  0  0  0  0  0  0  0  0
  -12.0376  -24.7669   30.7521 H   0  0  0  0  0  0  0  0  0  0  0  0
  -15.8790  -25.8211   28.7767 H   0  0  0  0  0  0  0  0  0  0  0  0
  -15.2062  -27.4319   28.9131 H   0  0  0  0  0  0  0  0  0  0  0  0
  -17.2139  -27.8272   27.8916 H   0  0  0  0  0  0  0  0  0  0  0  0
  -16.0293  -27.9904   26.6052 H   0  0  0  0  0  0  0  0  0  0  0  0
  -18.0259  -25.8065   27.1693 H   0  0  0  0  0  0  0  0  0  0  0  0
  -17.9895  -25.7628   24.7813 H   0  0  0  0  0  0  0  0  0  0  0  0
  -18.6014  -27.1105   25.4679 H   0  0  0  0  0  0  0  0  0  0  0  0
  -16.5374  -24.3017   26.9686 H   0  0  0  0  0  0  0  0  0  0  0  0
  -15.6407  -26.3844   24.1848 H   0  0  0  0  0  0  0  0  0  0  0  0
  -13.9374  -26.3368   24.3176 H   0  0  0  0  0  0  0  0  0  0  0  0
  -15.8466  -23.8532   24.2031 H   0  0  0  0  0  0  0  0  0  0  0  0
  -14.2722  -23.9373   23.4014 H   0  0  0  0  0  0  0  0  0  0  0  0
  -14.5636  -23.0700   25.9261 H   0  0  0  0  0  0  0  0  0  0  0  0
  -13.1341  -23.9668   25.5172 H   0  0  0  0  0  0  0  0  0  0  0  0
  -11.1102  -27.9139   28.3178 H   0  0  0  0  0  0  0  0  0  0  0  0
   -9.2674  -26.4624   28.6106 H   0  0  0  0  0  0  0  0  0  0  0  0
  1  2  1  0
  2  3  2  0
  3  4  1  0
  4  5  2  0
  5  6  1  0
  6  7  1  0
  6  8  1  0
  8  9  1  0
  9 10  1  0
 10 11  1  0
 10 12  1  0
  8 13  1  0
 13 14  1  0
 14 15  1  0
 15 16  1  0
 15 17  1  0
 17 18  1  0
 18 19  1  0
 19 20  1  0
 20 21  1  0
  5 22  1  0
 22 23  2  0
 23  2  1  0
 18  8  1  0
 21 18  1  0
  1 24  1  0
  1 25  1  0
  3 26  1  0
  4 27  1  0
  6 28  1  0
  7 29  1  0
  7 30  1  0
 10 31  1  0
 13 32  1  0
 13 33  1  0
 14 34  1  0
 14 35  1  0
 15 36  1  0
 16 37  1  0
 16 38  1  0
 17 39  1  0
 19 40  1  0
 19 41  1  0
 20 42  1  0
 20 43  1  0
 21 44  1  0
 21 45  1  0
 22 46  1  0
 23 47  1  0
M  END
>  <Energy>  (283) 
129.73624832825459

>  <compound_id>  (283) 
3314

>  <target_id>  (283) 
1

>  <reference_id>  (283) 
110

>  <inspiration_ids>  (283) 
[110, 45]

>  <energy_score>  (283) 
32.0730751860732

>  <distance_score>  (283) 
3.9006234824448867

>  <path>  (283) 
/opt/xchem-fragalysis-2/maxwin/BulkDock/SCRATCH/505734/C3314-P110/C3314-P110.minimised.mol

>  <scratch_subdir>  (283) 
/opt/xchem-fragalysis-2/maxwin/BulkDock/SCRATCH/505734/C3314-P110

>  <fragmenstein_runtime>  (283) 
11.3490469455719

>  <fragmenstein_outcome>  (283) 
too moved

>  <fragmenstein_mode>  (283) 
expansion

>  <fragmenstein_error>  (283) 


$$$$
C3314-P45
     RDKit          3D

 47 49  0  0  0  0  0  0  0  0999 V2000
   -4.6563  -25.2154   27.3635 N   0  0  0  0  0  0  0  0  0  0  0  0
   -5.9209  -25.6854   27.0259 C   0  0  0  0  0  0  0  0  0  0  0  0
   -7.0454  -24.8887   27.2270 C   0  0  0  0  0  0  0  0  0  0  0  0
   -8.3263  -25.4508   27.2663 C   0  0  0  0  0  0  0  0  0  0  0  0
   -8.5116  -26.8274   27.1550 C   0  0  0  0  0  0  0  0  0  0  0  0
   -9.7727  -27.5608   27.5911 C   0  0  0  0  0  0  0  0  0  0  0  0
  -10.0432  -28.7382   26.7298 N   0  0  0  0  0  0  0  0  0  0  0  0
  -11.1471  -26.9488   28.1542 C   0  0  0  0  0  0  0  0  0  0  0  0
  -11.0337  -25.4722   29.3792 S   0  0  0  0  0  0  0  0  0  0  0  0
   -9.7344  -25.9103   30.5202 C   0  0  0  0  0  0  0  0  0  0  0  0
   -8.6088  -25.2956   30.1128 F   0  0  0  0  0  0  0  0  0  0  0  0
   -9.5418  -27.2405   30.5520 F   0  0  0  0  0  0  0  0  0  0  0  0
  -11.8467  -28.1342   28.9248 C   0  0  0  0  0  0  0  0  0  0  0  0
  -13.3541  -28.1179   29.0957 C   0  0  0  0  0  0  0  0  0  0  0  0
  -13.9670  -26.8384   28.6030 C   0  0  0  0  0  0  0  0  0  0  0  0
  -15.3990  -27.0000   28.4939 N   0  0  0  0  0  0  0  0  0  0  0  0
  -13.5799  -26.5987   27.2360 N   0  0  0  0  0  0  0  0  0  0  0  0
  -12.1030  -26.3669   27.0469 C   0  0  0  0  0  0  0  0  0  0  0  0
  -11.9384  -24.8428   26.6349 C   0  0  0  0  0  0  0  0  0  0  0  0
  -12.3501  -25.1942   25.2145 C   0  0  0  0  0  0  0  0  0  0  0  0
  -11.8975  -26.6359   25.5097 C   0  0  0  0  0  0  0  0  0  0  0  0
   -7.3691  -27.6037   26.8438 C   0  0  0  0  0  0  0  0  0  0  0  0
   -6.0943  -27.0439   26.7938 C   0  0  0  0  0  0  0  0  0  0  0  0
   -4.5527  -24.2117   27.3943 H   0  0  0  0  0  0  0  0  0  0  0  0
   -3.8845  -25.7087   26.9130 H   0  0  0  0  0  0  0  0  0  0  0  0
   -6.9342  -23.8298   27.4481 H   0  0  0  0  0  0  0  0  0  0  0  0
   -9.1323  -24.7759   27.5144 H   0  0  0  0  0  0  0  0  0  0  0  0
   -9.3693  -28.0077   28.4977 H   0  0  0  0  0  0  0  0  0  0  0  0
   -9.3589  -29.4700   26.9284 H   0  0  0  0  0  0  0  0  0  0  0  0
   -9.8890  -28.5056   25.7471 H   0  0  0  0  0  0  0  0  0  0  0  0
   -9.9397  -25.5611   31.5340 H   0  0  0  0  0  0  0  0  0  0  0  0
  -11.6416  -29.0892   28.4276 H   0  0  0  0  0  0  0  0  0  0  0  0
  -11.4005  -28.2621   29.9160 H   0  0  0  0  0  0  0  0  0  0  0  0
  -13.6142  -28.2873   30.1471 H   0  0  0  0  0  0  0  0  0  0  0  0
  -13.7718  -28.9813   28.5560 H   0  0  0  0  0  0  0  0  0  0  0  0
  -13.7489  -26.0060   29.2706 H   0  0  0  0  0  0  0  0  0  0  0  0
  -15.8108  -26.0725   28.3825 H   0  0  0  0  0  0  0  0  0  0  0  0
  -15.7509  -27.2952   29.4066 H   0  0  0  0  0  0  0  0  0  0  0  0
  -13.9248  -27.4151   26.7235 H   0  0  0  0  0  0  0  0  0  0  0  0
  -10.9147  -24.4614   26.6346 H   0  0  0  0  0  0  0  0  0  0  0  0
  -12.5357  -24.0884   27.1472 H   0  0  0  0  0  0  0  0  0  0  0  0
  -11.7819  -24.6356   24.4725 H   0  0  0  0  0  0  0  0  0  0  0  0
  -13.4162  -25.0950   24.9955 H   0  0  0  0  0  0  0  0  0  0  0  0
  -10.8659  -26.7806   25.2089 H   0  0  0  0  0  0  0  0  0  0  0  0
  -12.5005  -27.4180   25.0416 H   0  0  0  0  0  0  0  0  0  0  0  0
   -7.4302  -28.6840   26.7317 H   0  0  0  0  0  0  0  0  0  0  0  0
   -5.2315  -27.6889   26.6466 H   0  0  0  0  0  0  0  0  0  0  0  0
  1  2  1  0
  2  3  2  0
  3  4  1  0
  4  5  2  0
  5  6  1  0
  6  7  1  0
  6  8  1  0
  8  9  1  0
  9 10  1  0
 10 11  1  0
 10 12  1  0
  8 13  1  0
 13 14  1  0
 14 15  1  0
 15 16  1  0
 15 17  1  0
 17 18  1  0
 18 19  1  0
 19 20  1  0
 20 21  1  0
  5 22  1  0
 22 23  2  0
 23  2  1  0
 18  8  1  0
 21 18  1  0
  1 24  1  0
  1 25  1  0
  3 26  1  0
  4 27  1  0
  6 28  1  0
  7 29  1  0
  7 30  1  0
 10 31  1  0
 13 32  1  0
 13 33  1  0
 14 34  1  0
 14 35  1  0
 15 36  1  0
 16 37  1  0
 16 38  1  0
 17 39  1  0
 19 40  1  0
 19 41  1  0
 20 42  1  0
 20 43  1  0
 21 44  1  0
 21 45  1  0
 22 46  1  0
 23 47  1  0
M  END
>  <Energy>  (284) 
40.355474308982267

>  <compound_id>  (284) 
3314

>  <target_id>  (284) 
1

>  <reference_id>  (284) 
45

>  <inspiration_ids>  (284) 
[110, 45]

>  <energy_score>  (284) 
-57.30769883319334

>  <distance_score>  (284) 
2.0651799589143867

>  <path>  (284) 
/opt/xchem-fragalysis-2/maxwin/BulkDock/SCRATCH/505734/C3314-P45/C3314-P45.minimised.mol

>  <scratch_subdir>  (284) 
/opt/xchem-fragalysis-2/maxwin/BulkDock/SCRATCH/505734/C3314-P45

>  <fragmenstein_runtime>  (284) 
9.866748094558716

>  <fragmenstein_outcome>  (284) 
too moved

>  <fragmenstein_mode>  (284) 
expansion

>  <fragmenstein_error>  (284) 


$$$$
C3315-P110
     RDKit          3D

 28 29  0  0  0  0  0  0  0  0999 V2000
  -14.6328  -26.0321   24.8419 N   0  0  0  0  0  0  0  0  0  0  0  0
  -13.5309  -26.0299   25.7089 C   0  0  0  0  0  0  0  0  0  0  0  0
  -12.3359  -26.6243   25.3342 C   0  0  0  0  0  0  0  0  0  0  0  0
  -11.2026  -26.5953   26.1511 C   0  0  0  0  0  0  0  0  0  0  0  0
  -11.2096  -25.8977   27.3476 C   0  0  0  0  0  0  0  0  0  0  0  0
   -9.7207  -25.8613   28.3021 S   0  0  0  0  0  0  0  0  0  0  0  0
  -10.2277  -26.2279   29.9983 C   0  0  0  0  0  0  0  0  0  0  0  0
   -9.5373  -25.4231   30.8447 F   0  0  0  0  0  0  0  0  0  0  0  0
   -9.9175  -27.4944   30.3327 F   0  0  0  0  0  0  0  0  0  0  0  0
  -12.3742  -25.2019   27.6513 C   0  0  0  0  0  0  0  0  0  0  0  0
  -12.4843  -24.5128   28.8532 O   0  0  0  0  0  0  0  0  0  0  0  0
  -11.6383  -23.4293   28.9712 C   0  0  0  0  0  0  0  0  0  0  0  0
  -11.0764  -22.8611   28.0486 O   0  0  0  0  0  0  0  0  0  0  0  0
  -11.5809  -22.9837   30.3306 C   0  0  0  0  0  0  0  0  0  0  0  0
  -11.4898  -21.6603   30.6955 C   0  0  0  0  0  0  0  0  0  0  0  0
  -11.6917  -21.4594   31.9921 N   0  0  0  0  0  0  0  0  0  0  0  0
  -11.8201  -22.6915   32.4895 N   0  0  0  0  0  0  0  0  0  0  0  0
  -11.5937  -23.6411   31.5429 C   0  0  0  0  0  0  0  0  0  0  0  0
  -13.5325  -25.2845   26.8700 C   0  0  0  0  0  0  0  0  0  0  0  0
  -14.5084  -25.3471   24.0961 H   0  0  0  0  0  0  0  0  0  0  0  0
  -15.5006  -25.8099   25.3267 H   0  0  0  0  0  0  0  0  0  0  0  0
  -12.2838  -27.1899   24.4140 H   0  0  0  0  0  0  0  0  0  0  0  0
  -10.3215  -27.1424   25.8319 H   0  0  0  0  0  0  0  0  0  0  0  0
  -11.2888  -26.1073   30.1756 H   0  0  0  0  0  0  0  0  0  0  0  0
  -11.3305  -20.8493   30.0137 H   0  0  0  0  0  0  0  0  0  0  0  0
  -12.0161  -22.8143   33.4797 H   0  0  0  0  0  0  0  0  0  0  0  0
  -11.6105  -24.6784   31.8352 H   0  0  0  0  0  0  0  0  0  0  0  0
  -14.4447  -24.7947   27.1775 H   0  0  0  0  0  0  0  0  0  0  0  0
  1  2  1  0
  2  3  2  0
  3  4  1  0
  4  5  2  0
  5  6  1  0
  6  7  1  0
  7  8  1  0
  7  9  1  0
  5 10  1  0
 10 11  1  0
 11 12  1  0
 12 13  2  0
 12 14  1  0
 14 15  1  0
 15 16  2  0
 16 17  1  0
 17 18  1  0
 10 19  2  0
 19  2  1  0
 18 14  2  0
  1 20  1  0
  1 21  1  0
  3 22  1  0
  4 23  1  0
  7 24  1  0
 15 25  1  0
 17 26  1  0
 18 27  1  0
 19 28  1  0
M  END
>  <Energy>  (285) 
55.741218567838111

>  <compound_id>  (285) 
3315

>  <target_id>  (285) 
1

>  <reference_id>  (285) 
110

>  <inspiration_ids>  (285) 
[110, 46]

>  <energy_score>  (285) 
-13.675636751099546

>  <distance_score>  (285) 
1.7337164795852362

>  <path>  (285) 
/opt/xchem-fragalysis-2/maxwin/BulkDock/SCRATCH/505734/C3315-P110/C3315-P110.minimised.mol

>  <scratch_subdir>  (285) 
/opt/xchem-fragalysis-2/maxwin/BulkDock/SCRATCH/505734/C3315-P110

>  <fragmenstein_runtime>  (285) 
2.7924718856811523

>  <fragmenstein_outcome>  (285) 
too moved

>  <fragmenstein_mode>  (285) 
expansion

>  <fragmenstein_error>  (285) 


$$$$
C3315-P46
     RDKit          3D

 28 29  0  0  0  0  0  0  0  0999 V2000
  -14.5944  -25.5366   25.3423 N   0  0  0  0  0  0  0  0  0  0  0  0
  -13.4391  -25.5249   26.1508 C   0  0  0  0  0  0  0  0  0  0  0  0
  -13.1633  -26.6266   26.9538 C   0  0  0  0  0  0  0  0  0  0  0  0
  -12.0949  -26.6424   27.8595 C   0  0  0  0  0  0  0  0  0  0  0  0
  -11.4345  -25.4620   28.1497 C   0  0  0  0  0  0  0  0  0  0  0  0
  -10.0832  -25.3713   29.2875 S   0  0  0  0  0  0  0  0  0  0  0  0
  -10.7578  -25.8768   30.8583 C   0  0  0  0  0  0  0  0  0  0  0  0
   -9.8554  -25.5722   31.8197 F   0  0  0  0  0  0  0  0  0  0  0  0
  -10.9421  -27.2170   30.8686 F   0  0  0  0  0  0  0  0  0  0  0  0
  -11.8635  -24.3044   27.4812 C   0  0  0  0  0  0  0  0  0  0  0  0
  -11.6213  -23.0644   28.0841 O   0  0  0  0  0  0  0  0  0  0  0  0
  -12.6164  -22.9631   29.0560 C   0  0  0  0  0  0  0  0  0  0  0  0
  -13.7165  -23.4943   28.9954 O   0  0  0  0  0  0  0  0  0  0  0  0
  -12.2339  -22.2532   30.2399 C   0  0  0  0  0  0  0  0  0  0  0  0
  -11.0896  -21.5282   30.4051 C   0  0  0  0  0  0  0  0  0  0  0  0
  -10.8253  -21.2508   31.6766 N   0  0  0  0  0  0  0  0  0  0  0  0
  -11.8968  -21.6838   32.3334 N   0  0  0  0  0  0  0  0  0  0  0  0
  -12.8554  -22.0874   31.4642 C   0  0  0  0  0  0  0  0  0  0  0  0
  -12.7608  -24.3474   26.4114 C   0  0  0  0  0  0  0  0  0  0  0  0
  -14.5841  -24.7685   24.6756 H   0  0  0  0  0  0  0  0  0  0  0  0
  -15.4000  -25.3986   25.9663 H   0  0  0  0  0  0  0  0  0  0  0  0
  -13.8082  -27.4938   26.8657 H   0  0  0  0  0  0  0  0  0  0  0  0
  -11.8505  -27.5625   28.3822 H   0  0  0  0  0  0  0  0  0  0  0  0
  -11.6804  -25.3562   31.0977 H   0  0  0  0  0  0  0  0  0  0  0  0
  -10.4206  -21.2347   29.6180 H   0  0  0  0  0  0  0  0  0  0  0  0
  -11.9421  -21.5838   33.3450 H   0  0  0  0  0  0  0  0  0  0  0  0
  -13.8412  -22.2762   31.8527 H   0  0  0  0  0  0  0  0  0  0  0  0
  -13.0248  -23.4367   25.8920 H   0  0  0  0  0  0  0  0  0  0  0  0
  1  2  1  0
  2  3  2  0
  3  4  1  0
  4  5  2  0
  5  6  1  0
  6  7  1  0
  7  8  1  0
  7  9  1  0
  5 10  1  0
 10 11  1  0
 11 12  1  0
 12 13  2  0
 12 14  1  0
 14 15  1  0
 15 16  2  0
 16 17  1  0
 17 18  1  0
 10 19  2  0
 19  2  1  0
 18 14  2  0
  1 20  1  0
  1 21  1  0
  3 22  1  0
  4 23  1  0
  7 24  1  0
 15 25  1  0
 17 26  1  0
 18 27  1  0
 19 28  1  0
M  END
>  <Energy>  (286) 
61.135356680740777

>  <compound_id>  (286) 
3315

>  <target_id>  (286) 
1

>  <reference_id>  (286) 
46

>  <inspiration_ids>  (286) 
[110, 46]

>  <energy_score>  (286) 
-8.281498638196638

>  <distance_score>  (286) 
1.7715393685538203

>  <path>  (286) 
/opt/xchem-fragalysis-2/maxwin/BulkDock/SCRATCH/505734/C3315-P46/C3315-P46.minimised.mol

>  <scratch_subdir>  (286) 
/opt/xchem-fragalysis-2/maxwin/BulkDock/SCRATCH/505734/C3315-P46

>  <fragmenstein_runtime>  (286) 
2.5951900482177734

>  <fragmenstein_outcome>  (286) 
too moved

>  <fragmenstein_mode>  (286) 
expansion

>  <fragmenstein_error>  (286) 


$$$$
C2569-P110
     RDKit          3D

 58 60  0  0  0  0  0  0  0  0999 V2000
  -14.9780  -26.1679   24.8554 N   0  0  0  0  0  0  0  0  0  0  0  0
  -14.0033  -26.7862   25.7463 C   0  0  0  0  0  0  0  0  0  0  0  0
  -12.6360  -26.9168   25.0676 C   0  0  0  0  0  0  0  0  0  0  0  0
  -11.5419  -27.2636   26.0601 C   0  0  0  0  0  0  0  0  0  0  0  0
  -11.2428  -25.9796   26.7601 C   0  0  0  0  0  0  0  0  0  0  0  0
   -9.8830  -26.2406   27.9740 S   0  0  0  0  0  0  0  0  0  0  0  0
  -10.7417  -26.8962   29.3689 C   0  0  0  0  0  0  0  0  0  0  0  0
  -11.3420  -25.8637   29.9703 F   0  0  0  0  0  0  0  0  0  0  0  0
   -9.8831  -27.4051   30.2697 F   0  0  0  0  0  0  0  0  0  0  0  0
  -12.5974  -25.1930   27.0749 C   0  0  0  0  0  0  0  0  0  0  0  0
  -12.9170  -24.0740   26.0690 C   0  0  0  0  0  0  0  0  0  0  0  0
  -11.7694  -23.1631   26.2809 C   0  0  0  0  0  0  0  0  0  0  0  0
  -11.4386  -23.3623   27.7349 C   0  0  0  0  0  0  0  0  0  0  0  0
  -11.0654  -22.4031   28.8046 C   0  0  0  0  0  0  0  0  0  0  0  0
  -12.0252  -21.7239   29.7100 C   0  0  0  0  0  0  0  0  0  0  0  0
  -11.4052  -21.4177   31.0157 N   0  0  0  0  0  0  0  0  0  0  0  0
  -12.2957  -21.7681   32.3972 S   0  0  0  0  0  0  0  0  0  0  0  0
  -11.9710  -20.7566   33.3685 O   0  0  0  0  0  0  0  0  0  0  0  0
  -13.6771  -21.9325   32.0425 O   0  0  0  0  0  0  0  0  0  0  0  0
  -11.5242  -23.1595   32.8134 N   0  0  0  0  0  0  0  0  0  0  0  0
  -11.0234  -24.0482   31.7788 C   0  0  0  0  0  0  0  0  0  0  0  0
  -10.4586  -25.3824   32.2464 C   0  0  0  0  0  0  0  0  0  0  0  0
   -9.9740  -25.2998   33.6035 N   0  0  0  0  0  0  0  0  0  0  0  0
  -11.1471  -24.9877   34.3950 C   0  0  0  0  0  0  0  0  0  0  0  0
  -12.1081  -23.8757   33.9212 C   0  0  0  0  0  0  0  0  0  0  0  0
  -12.4160  -24.3445   28.2318 N   0  0  0  0  0  0  0  0  0  0  0  0
  -13.8234  -26.1006   27.0969 C   0  0  0  0  0  0  0  0  0  0  0  0
  -15.8836  -26.1131   25.3274 H   0  0  0  0  0  0  0  0  0  0  0  0
  -14.7440  -25.1976   24.6503 H   0  0  0  0  0  0  0  0  0  0  0  0
  -14.4125  -27.7722   25.9787 H   0  0  0  0  0  0  0  0  0  0  0  0
  -12.6416  -27.5734   24.2217 H   0  0  0  0  0  0  0  0  0  0  0  0
  -12.3240  -26.0087   24.5856 H   0  0  0  0  0  0  0  0  0  0  0  0
  -11.8508  -28.0172   26.7888 H   0  0  0  0  0  0  0  0  0  0  0  0
  -10.6634  -27.6364   25.5254 H   0  0  0  0  0  0  0  0  0  0  0  0
  -10.7037  -25.4146   26.0015 H   0  0  0  0  0  0  0  0  0  0  0  0
  -11.4933  -27.6428   29.1115 H   0  0  0  0  0  0  0  0  0  0  0  0
  -12.9645  -24.3177   25.0218 H   0  0  0  0  0  0  0  0  0  0  0  0
  -13.8796  -23.6038   26.2702 H   0  0  0  0  0  0  0  0  0  0  0  0
  -10.9828  -23.5785   25.6430 H   0  0  0  0  0  0  0  0  0  0  0  0
  -11.9221  -22.1820   25.8778 H   0  0  0  0  0  0  0  0  0  0  0  0
  -10.4574  -23.8338   27.6328 H   0  0  0  0  0  0  0  0  0  0  0  0
  -10.2921  -21.7209   28.4902 H   0  0  0  0  0  0  0  0  0  0  0  0
  -10.6279  -23.1326   29.4617 H   0  0  0  0  0  0  0  0  0  0  0  0
  -12.8950  -22.3512   29.8340 H   0  0  0  0  0  0  0  0  0  0  0  0
  -12.3021  -20.7860   29.2647 H   0  0  0  0  0  0  0  0  0  0  0  0
  -10.9681  -20.5049   31.1298 H   0  0  0  0  0  0  0  0  0  0  0  0
  -10.1531  -23.5485   31.4043 H   0  0  0  0  0  0  0  0  0  0  0  0
  -11.7570  -24.1683   31.0011 H   0  0  0  0  0  0  0  0  0  0  0  0
  -11.2035  -26.1821   32.1735 H   0  0  0  0  0  0  0  0  0  0  0  0
   -9.6139  -25.6546   31.6077 H   0  0  0  0  0  0  0  0  0  0  0  0
   -9.3076  -24.5332   33.6058 H   0  0  0  0  0  0  0  0  0  0  0  0
  -10.7990  -24.7984   35.4030 H   0  0  0  0  0  0  0  0  0  0  0  0
  -11.6628  -25.9004   34.5729 H   0  0  0  0  0  0  0  0  0  0  0  0
  -13.0735  -24.2777   33.6500 H   0  0  0  0  0  0  0  0  0  0  0  0
  -12.2615  -23.1654   34.7267 H   0  0  0  0  0  0  0  0  0  0  0  0
  -12.0073  -24.8325   29.0294 H   0  0  0  0  0  0  0  0  0  0  0  0
  -13.6711  -26.9164   27.8092 H   0  0  0  0  0  0  0  0  0  0  0  0
  -14.7356  -25.5753   27.4062 H   0  0  0  0  0  0  0  0  0  0  0  0
  1  2  1  0
  2  3  1  0
  3  4  1  0
  4  5  1  0
  5  6  1  0
  6  7  1  0
  7  8  1  0
  7  9  1  0
  5 10  1  0
 10 11  1  0
 11 12  1  0
 12 13  1  0
 13 14  1  0
 14 15  1  0
 15 16  1  0
 16 17  1  0
 17 18  2  0
 17 19  2  0
 17 20  1  0
 20 21  1  0
 21 22  1  0
 22 23  1  0
 23 24  1  0
 24 25  1  0
 13 26  1  0
 10 27  1  0
 27  2  1  0
 26 10  1  0
 25 20  1  0
  1 28  1  0
  1 29  1  0
  2 30  1  0
  3 31  1  0
  3 32  1  0
  4 33  1  0
  4 34  1  0
  5 35  1  0
  7 36  1  0
 11 37  1  0
 11 38  1  0
 12 39  1  0
 12 40  1  0
 13 41  1  0
 14 42  1  0
 14 43  1  0
 15 44  1  0
 15 45  1  0
 16 46  1  0
 21 47  1  0
 21 48  1  0
 22 49  1  0
 22 50  1  0
 23 51  1  0
 24 52  1  0
 24 53  1  0
 25 54  1  0
 25 55  1  0
 26 56  1  0
 27 57  1  0
 27 58  1  0
M  END
>  <Energy>  (287) 
-5.1609029814556191

>  <compound_id>  (287) 
2569

>  <target_id>  (287) 
1

>  <reference_id>  (287) 
110

>  <inspiration_ids>  (287) 
[110, 49]

>  <energy_score>  (287) 
-137.33683248838494

>  <distance_score>  (287) 
1.6764318301988603

>  <path>  (287) 
/opt/xchem-fragalysis-2/maxwin/BulkDock/SCRATCH/505734/C2569-P110/C2569-P110.minimised.mol

>  <scratch_subdir>  (287) 
/opt/xchem-fragalysis-2/maxwin/BulkDock/SCRATCH/505734/C2569-P110

>  <fragmenstein_runtime>  (287) 
8.4095299243927

>  <fragmenstein_outcome>  (287) 
too moved

>  <fragmenstein_mode>  (287) 
expansion

>  <fragmenstein_error>  (287) 


$$$$
C2569-P49
     RDKit          3D

 58 60  0  0  0  0  0  0  0  0999 V2000
  -14.1664  -26.2447   25.6279 N   0  0  0  0  0  0  0  0  0  0  0  0
  -14.3974  -26.2565   27.0752 C   0  0  0  0  0  0  0  0  0  0  0  0
  -13.7175  -27.4554   27.7440 C   0  0  0  0  0  0  0  0  0  0  0  0
  -12.4773  -27.1194   28.5886 C   0  0  0  0  0  0  0  0  0  0  0  0
  -11.6439  -25.9939   27.9935 C   0  0  0  0  0  0  0  0  0  0  0  0
   -9.9901  -25.7863   28.7350 S   0  0  0  0  0  0  0  0  0  0  0  0
  -10.3931  -25.6187   30.4695 C   0  0  0  0  0  0  0  0  0  0  0  0
   -9.2600  -25.3836   31.1671 F   0  0  0  0  0  0  0  0  0  0  0  0
  -10.9185  -26.7706   30.9543 F   0  0  0  0  0  0  0  0  0  0  0  0
  -12.4520  -24.6807   27.7417 C   0  0  0  0  0  0  0  0  0  0  0  0
  -12.0466  -24.1624   26.3789 C   0  0  0  0  0  0  0  0  0  0  0  0
  -10.9973  -23.1172   26.6008 C   0  0  0  0  0  0  0  0  0  0  0  0
  -10.9950  -22.7961   28.0867 C   0  0  0  0  0  0  0  0  0  0  0  0
  -10.8823  -21.2859   28.3008 C   0  0  0  0  0  0  0  0  0  0  0  0
  -11.6987  -20.6894   29.4028 C   0  0  0  0  0  0  0  0  0  0  0  0
  -10.9956  -20.2993   30.6120 N   0  0  0  0  0  0  0  0  0  0  0  0
  -11.8248  -20.6477   32.0045 S   0  0  0  0  0  0  0  0  0  0  0  0
  -11.2194  -19.9008   33.0613 O   0  0  0  0  0  0  0  0  0  0  0  0
  -13.2373  -20.5442   31.7568 O   0  0  0  0  0  0  0  0  0  0  0  0
  -11.3815  -22.2499   32.0617 N   0  0  0  0  0  0  0  0  0  0  0  0
   -9.9524  -22.5101   32.3984 C   0  0  0  0  0  0  0  0  0  0  0  0
   -9.7490  -23.5230   33.5269 C   0  0  0  0  0  0  0  0  0  0  0  0
  -10.6016  -23.3724   34.7035 N   0  0  0  0  0  0  0  0  0  0  0  0
  -11.9132  -22.7883   34.3779 C   0  0  0  0  0  0  0  0  0  0  0  0
  -12.3016  -22.9664   32.9320 C   0  0  0  0  0  0  0  0  0  0  0  0
  -12.1853  -23.4958   28.5720 N   0  0  0  0  0  0  0  0  0  0  0  0
  -13.9739  -24.9487   27.7411 C   0  0  0  0  0  0  0  0  0  0  0  0
  -14.7037  -27.0049   25.2106 H   0  0  0  0  0  0  0  0  0  0  0  0
  -14.5598  -25.3911   25.2260 H   0  0  0  0  0  0  0  0  0  0  0  0
  -15.4815  -26.3619   27.2107 H   0  0  0  0  0  0  0  0  0  0  0  0
  -14.4445  -27.9372   28.4125 H   0  0  0  0  0  0  0  0  0  0  0  0
  -13.4853  -28.2290   27.0066 H   0  0  0  0  0  0  0  0  0  0  0  0
  -12.8162  -26.8450   29.5880 H   0  0  0  0  0  0  0  0  0  0  0  0
  -11.8832  -28.0324   28.7159 H   0  0  0  0  0  0  0  0  0  0  0  0
  -11.3562  -26.3873   27.0201 H   0  0  0  0  0  0  0  0  0  0  0  0
  -11.0859  -24.8106   30.6788 H   0  0  0  0  0  0  0  0  0  0  0  0
  -11.6225  -24.9552   25.7679 H   0  0  0  0  0  0  0  0  0  0  0  0
  -12.8865  -23.7088   25.8376 H   0  0  0  0  0  0  0  0  0  0  0  0
  -11.3130  -22.2833   25.9790 H   0  0  0  0  0  0  0  0  0  0  0  0
  -10.0188  -23.4721   26.2696 H   0  0  0  0  0  0  0  0  0  0  0  0
  -10.1026  -23.2113   28.5573 H   0  0  0  0  0  0  0  0  0  0  0  0
  -11.2066  -20.7909   27.3854 H   0  0  0  0  0  0  0  0  0  0  0  0
   -9.8348  -21.0206   28.4141 H   0  0  0  0  0  0  0  0  0  0  0  0
  -12.5220  -21.3607   29.6303 H   0  0  0  0  0  0  0  0  0  0  0  0
  -12.0792  -19.7381   29.0453 H   0  0  0  0  0  0  0  0  0  0  0  0
  -10.6825  -19.3347   30.6541 H   0  0  0  0  0  0  0  0  0  0  0  0
   -9.4540  -21.5888   32.7073 H   0  0  0  0  0  0  0  0  0  0  0  0
   -9.4519  -22.8748   31.4970 H   0  0  0  0  0  0  0  0  0  0  0  0
   -9.9202  -24.5316   33.1439 H   0  0  0  0  0  0  0  0  0  0  0  0
   -8.7042  -23.4765   33.8424 H   0  0  0  0  0  0  0  0  0  0  0  0
  -10.1887  -22.7552   35.3930 H   0  0  0  0  0  0  0  0  0  0  0  0
  -11.9051  -21.7274   34.6459 H   0  0  0  0  0  0  0  0  0  0  0  0
  -12.6990  -23.2477   34.9745 H   0  0  0  0  0  0  0  0  0  0  0  0
  -12.2476  -23.9966   32.6038 H   0  0  0  0  0  0  0  0  0  0  0  0
  -13.3234  -22.6211   32.8009 H   0  0  0  0  0  0  0  0  0  0  0  0
  -12.1879  -23.6303   29.5769 H   0  0  0  0  0  0  0  0  0  0  0  0
  -14.3419  -24.9634   28.7733 H   0  0  0  0  0  0  0  0  0  0  0  0
  -14.5194  -24.1353   27.2510 H   0  0  0  0  0  0  0  0  0  0  0  0
  1  2  1  0
  2  3  1  0
  3  4  1  0
  4  5  1  0
  5  6  1  0
  6  7  1  0
  7  8  1  0
  7  9  1  0
  5 10  1  0
 10 11  1  0
 11 12  1  0
 12 13  1  0
 13 14  1  0
 14 15  1  0
 15 16  1  0
 16 17  1  0
 17 18  2  0
 17 19  2  0
 17 20  1  0
 20 21  1  0
 21 22  1  0
 22 23  1  0
 23 24  1  0
 24 25  1  0
 13 26  1  0
 10 27  1  0
 27  2  1  0
 26 10  1  0
 25 20  1  0
  1 28  1  0
  1 29  1  0
  2 30  1  0
  3 31  1  0
  3 32  1  0
  4 33  1  0
  4 34  1  0
  5 35  1  0
  7 36  1  0
 11 37  1  0
 11 38  1  0
 12 39  1  0
 12 40  1  0
 13 41  1  0
 14 42  1  0
 14 43  1  0
 15 44  1  0
 15 45  1  0
 16 46  1  0
 21 47  1  0
 21 48  1  0
 22 49  1  0
 22 50  1  0
 23 51  1  0
 24 52  1  0
 24 53  1  0
 25 54  1  0
 25 55  1  0
 26 56  1  0
 27 57  1  0
 27 58  1  0
M  END
>  <Energy>  (288) 
-61.749991821680418

>  <compound_id>  (288) 
2569

>  <target_id>  (288) 
1

>  <reference_id>  (288) 
49

>  <inspiration_ids>  (288) 
[110, 49]

>  <energy_score>  (288) 
-193.92592132860744

>  <distance_score>  (288) 
1.4613056729643714

>  <path>  (288) 
/opt/xchem-fragalysis-2/maxwin/BulkDock/SCRATCH/505734/C2569-P49/C2569-P49.minimised.mol

>  <scratch_subdir>  (288) 
/opt/xchem-fragalysis-2/maxwin/BulkDock/SCRATCH/505734/C2569-P49

>  <fragmenstein_runtime>  (288) 
7.899041414260864

>  <fragmenstein_outcome>  (288) 
too moved

>  <fragmenstein_mode>  (288) 
expansion

>  <fragmenstein_error>  (288) 


$$$$
C3317-P110
     RDKit          3D

 35 36  0  0  0  0  0  0  0  0999 V2000
  -12.1061  -22.0407   24.2120 C   0  0  0  0  0  0  0  0  0  0  0  0
  -12.0688  -23.5017   25.2505 S   0  0  0  0  0  0  0  0  0  0  0  0
  -11.0556  -24.3587   24.6691 O   0  0  0  0  0  0  0  0  0  0  0  0
  -13.4572  -23.9343   25.3425 O   0  0  0  0  0  0  0  0  0  0  0  0
  -11.4250  -23.2516   26.8839 C   0  0  0  0  0  0  0  0  0  0  0  0
  -11.9517  -24.2180   27.9070 C   0  0  0  0  0  0  0  0  0  0  0  0
  -13.3276  -24.1401   27.9859 O   0  0  0  0  0  0  0  0  0  0  0  0
  -11.5066  -23.8348   29.2969 C   0  0  0  0  0  0  0  0  0  0  0  0
  -11.1011  -24.8007   30.2363 C   0  0  0  0  0  0  0  0  0  0  0  0
  -10.9635  -24.4684   31.5729 C   0  0  0  0  0  0  0  0  0  0  0  0
  -11.2054  -23.1679   31.9859 C   0  0  0  0  0  0  0  0  0  0  0  0
  -11.5097  -22.1761   31.0679 C   0  0  0  0  0  0  0  0  0  0  0  0
  -11.6664  -22.5014   29.7308 C   0  0  0  0  0  0  0  0  0  0  0  0
  -11.7676  -25.6439   27.4901 C   0  0  0  0  0  0  0  0  0  0  0  0
  -12.8381  -26.2817   26.8385 C   0  0  0  0  0  0  0  0  0  0  0  0
  -12.5553  -26.9517   25.6950 C   0  0  0  0  0  0  0  0  0  0  0  0
  -11.2545  -27.3471   25.4751 C   0  0  0  0  0  0  0  0  0  0  0  0
  -10.2590  -27.0203   26.3697 C   0  0  0  0  0  0  0  0  0  0  0  0
  -10.4842  -26.1303   27.3776 C   0  0  0  0  0  0  0  0  0  0  0  0
  -11.2319  -22.0412   23.5561 H   0  0  0  0  0  0  0  0  0  0  0  0
  -12.1382  -21.1211   24.7846 H   0  0  0  0  0  0  0  0  0  0  0  0
  -13.0007  -22.1127   23.5894 H   0  0  0  0  0  0  0  0  0  0  0  0
  -10.3666  -23.4967   26.8438 H   0  0  0  0  0  0  0  0  0  0  0  0
  -11.5249  -22.2070   27.1446 H   0  0  0  0  0  0  0  0  0  0  0  0
  -13.6658  -24.0966   27.0613 H   0  0  0  0  0  0  0  0  0  0  0  0
  -11.0058  -25.8524   29.9808 H   0  0  0  0  0  0  0  0  0  0  0  0
  -10.7546  -25.2409   32.3063 H   0  0  0  0  0  0  0  0  0  0  0  0
  -11.1928  -22.9334   33.0421 H   0  0  0  0  0  0  0  0  0  0  0  0
  -11.6522  -21.1703   31.4307 H   0  0  0  0  0  0  0  0  0  0  0  0
  -11.9770  -21.7107   29.0622 H   0  0  0  0  0  0  0  0  0  0  0  0
  -13.8846  -26.0384   27.0040 H   0  0  0  0  0  0  0  0  0  0  0  0
  -13.3537  -27.1961   25.0105 H   0  0  0  0  0  0  0  0  0  0  0  0
  -11.0201  -28.0007   24.6438 H   0  0  0  0  0  0  0  0  0  0  0  0
   -9.2634  -27.4106   26.2252 H   0  0  0  0  0  0  0  0  0  0  0  0
   -9.6460  -25.7241   27.9338 H   0  0  0  0  0  0  0  0  0  0  0  0
  1  2  1  0
  2  3  2  0
  2  4  2  0
  2  5  1  0
  5  6  1  0
  6  7  1  0
  6  8  1  0
  8  9  2  0
  9 10  1  0
 10 11  2  0
 11 12  1  0
 12 13  2  0
  6 14  1  0
 14 15  2  0
 15 16  1  0
 16 17  2  0
 17 18  1  0
 18 19  2  0
 13  8  1  0
 19 14  1  0
  1 20  1  0
  1 21  1  0
  1 22  1  0
  5 23  1  0
  5 24  1  0
  7 25  1  0
  9 26  1  0
 10 27  1  0
 11 28  1  0
 12 29  1  0
 13 30  1  0
 15 31  1  0
 16 32  1  0
 17 33  1  0
 18 34  1  0
 19 35  1  0
M  END
>  <Energy>  (289) 
94.870936155648451

>  <compound_id>  (289) 
3317

>  <target_id>  (289) 
1

>  <reference_id>  (289) 
110

>  <inspiration_ids>  (289) 
[110, 52]

>  <energy_score>  (289) 
19.863853077800513

>  <distance_score>  (289) 
2.1762508321770135

>  <path>  (289) 
/opt/xchem-fragalysis-2/maxwin/BulkDock/SCRATCH/505734/C3317-P110/C3317-P110.minimised.mol

>  <scratch_subdir>  (289) 
/opt/xchem-fragalysis-2/maxwin/BulkDock/SCRATCH/505734/C3317-P110

>  <fragmenstein_runtime>  (289) 
6.112653493881226

>  <fragmenstein_outcome>  (289) 
too moved

>  <fragmenstein_mode>  (289) 
expansion

>  <fragmenstein_error>  (289) 


$$$$
C3317-P52
     RDKit          3D

 35 36  0  0  0  0  0  0  0  0999 V2000
  -10.5894  -23.5669   25.2885 C   0  0  0  0  0  0  0  0  0  0  0  0
  -11.0486  -25.1740   25.8982 S   0  0  0  0  0  0  0  0  0  0  0  0
   -9.9689  -26.0958   25.7200 O   0  0  0  0  0  0  0  0  0  0  0  0
  -12.3634  -25.5323   25.4084 O   0  0  0  0  0  0  0  0  0  0  0  0
  -11.0424  -24.7793   27.5920 C   0  0  0  0  0  0  0  0  0  0  0  0
  -12.4050  -24.1909   27.8749 C   0  0  0  0  0  0  0  0  0  0  0  0
  -12.7748  -23.3372   26.7709 O   0  0  0  0  0  0  0  0  0  0  0  0
  -12.1533  -23.2641   29.0434 C   0  0  0  0  0  0  0  0  0  0  0  0
  -11.9913  -23.7347   30.3474 C   0  0  0  0  0  0  0  0  0  0  0  0
  -11.6891  -22.8692   31.3898 C   0  0  0  0  0  0  0  0  0  0  0  0
  -11.4869  -21.5219   31.1394 C   0  0  0  0  0  0  0  0  0  0  0  0
  -11.5357  -21.0510   29.8382 C   0  0  0  0  0  0  0  0  0  0  0  0
  -11.8518  -21.9110   28.7994 C   0  0  0  0  0  0  0  0  0  0  0  0
  -13.3573  -25.3971   28.0270 C   0  0  0  0  0  0  0  0  0  0  0  0
  -14.5013  -25.5094   27.2156 C   0  0  0  0  0  0  0  0  0  0  0  0
  -15.0637  -26.7488   26.9229 C   0  0  0  0  0  0  0  0  0  0  0  0
  -14.5159  -27.9023   27.4630 C   0  0  0  0  0  0  0  0  0  0  0  0
  -13.4639  -27.8123   28.3630 C   0  0  0  0  0  0  0  0  0  0  0  0
  -12.9197  -26.5713   28.6769 C   0  0  0  0  0  0  0  0  0  0  0  0
   -9.7168  -23.6471   24.6562 H   0  0  0  0  0  0  0  0  0  0  0  0
  -10.3214  -22.9727   26.1556 H   0  0  0  0  0  0  0  0  0  0  0  0
  -11.4065  -23.0480   24.7911 H   0  0  0  0  0  0  0  0  0  0  0  0
  -10.7394  -25.6647   28.1533 H   0  0  0  0  0  0  0  0  0  0  0  0
  -10.2122  -24.0857   27.7720 H   0  0  0  0  0  0  0  0  0  0  0  0
  -13.2246  -23.8767   26.0906 H   0  0  0  0  0  0  0  0  0  0  0  0
  -12.0800  -24.7852   30.5854 H   0  0  0  0  0  0  0  0  0  0  0  0
  -11.6098  -23.2421   32.4083 H   0  0  0  0  0  0  0  0  0  0  0  0
  -11.2470  -20.8482   31.9589 H   0  0  0  0  0  0  0  0  0  0  0  0
  -11.3102  -20.0170   29.6238 H   0  0  0  0  0  0  0  0  0  0  0  0
  -11.8446  -21.5050   27.7887 H   0  0  0  0  0  0  0  0  0  0  0  0
  -14.9234  -24.6550   26.6937 H   0  0  0  0  0  0  0  0  0  0  0  0
  -15.9095  -26.8137   26.2428 H   0  0  0  0  0  0  0  0  0  0  0  0
  -14.9395  -28.8724   27.2159 H   0  0  0  0  0  0  0  0  0  0  0  0
  -13.0655  -28.7162   28.8179 H   0  0  0  0  0  0  0  0  0  0  0  0
  -12.0737  -26.5798   29.3585 H   0  0  0  0  0  0  0  0  0  0  0  0
  1  2  1  0
  2  3  2  0
  2  4  2  0
  2  5  1  0
  5  6  1  0
  6  7  1  0
  6  8  1  0
  8  9  2  0
  9 10  1  0
 10 11  2  0
 11 12  1  0
 12 13  2  0
  6 14  1  0
 14 15  2  0
 15 16  1  0
 16 17  2  0
 17 18  1  0
 18 19  2  0
 13  8  1  0
 19 14  1  0
  1 20  1  0
  1 21  1  0
  1 22  1  0
  5 23  1  0
  5 24  1  0
  7 25  1  0
  9 26  1  0
 10 27  1  0
 11 28  1  0
 12 29  1  0
 13 30  1  0
 15 31  1  0
 16 32  1  0
 17 33  1  0
 18 34  1  0
 19 35  1  0
M  END
>  <Energy>  (290) 
79.975809035610453

>  <compound_id>  (290) 
3317

>  <target_id>  (290) 
1

>  <reference_id>  (290) 
52

>  <inspiration_ids>  (290) 
[110, 52]

>  <energy_score>  (290) 
4.968725957764491

>  <distance_score>  (290) 
2.2549419963065853

>  <path>  (290) 
/opt/xchem-fragalysis-2/maxwin/BulkDock/SCRATCH/505734/C3317-P52/C3317-P52.minimised.mol

>  <scratch_subdir>  (290) 
/opt/xchem-fragalysis-2/maxwin/BulkDock/SCRATCH/505734/C3317-P52

>  <fragmenstein_runtime>  (290) 
5.098767042160034

>  <fragmenstein_outcome>  (290) 
too moved

>  <fragmenstein_mode>  (290) 
expansion

>  <fragmenstein_error>  (290) 


$$$$
C3322-P110
     RDKit          3D

 26 26  0  0  0  0  0  0  0  0999 V2000
  -11.0052  -23.5164   31.8315 C   0  0  0  0  0  0  0  0  0  0  0  0
  -10.2093  -25.1119   31.7709 S   0  0  0  0  0  0  0  0  0  0  0  0
   -8.9881  -25.0375   31.0078 O   0  0  0  0  0  0  0  0  0  0  0  0
  -10.2447  -25.5899   33.1388 O   0  0  0  0  0  0  0  0  0  0  0  0
  -11.2891  -26.0261   30.7882 C   0  0  0  0  0  0  0  0  0  0  0  0
  -10.8979  -26.6033   29.4380 C   0  0  0  0  0  0  0  0  0  0  0  0
  -11.6470  -27.8256   29.3824 O   0  0  0  0  0  0  0  0  0  0  0  0
  -11.3886  -25.8364   28.1979 C   0  0  0  0  0  0  0  0  0  0  0  0
  -11.0654  -24.4935   28.0694 C   0  0  0  0  0  0  0  0  0  0  0  0
  -11.6936  -23.7190   27.1012 C   0  0  0  0  0  0  0  0  0  0  0  0
  -12.5859  -24.2713   26.1822 C   0  0  0  0  0  0  0  0  0  0  0  0
  -12.8418  -25.6215   26.2249 C   0  0  0  0  0  0  0  0  0  0  0  0
  -13.6956  -26.1710   25.3144 O   0  0  0  0  0  0  0  0  0  0  0  0
  -12.2532  -26.3985   27.2156 C   0  0  0  0  0  0  0  0  0  0  0  0
  -11.2419  -23.1630   30.8289 H   0  0  0  0  0  0  0  0  0  0  0  0
  -10.3259  -22.8242   32.3204 H   0  0  0  0  0  0  0  0  0  0  0  0
  -11.9096  -23.6013   32.4362 H   0  0  0  0  0  0  0  0  0  0  0  0
  -11.6904  -26.7933   31.4573 H   0  0  0  0  0  0  0  0  0  0  0  0
  -12.0008  -25.2513   30.5609 H   0  0  0  0  0  0  0  0  0  0  0  0
   -9.8353  -26.8379   29.3555 H   0  0  0  0  0  0  0  0  0  0  0  0
  -11.3853  -28.2037   28.5290 H   0  0  0  0  0  0  0  0  0  0  0  0
  -10.3679  -24.0174   28.7491 H   0  0  0  0  0  0  0  0  0  0  0  0
  -11.4947  -22.6527   27.0742 H   0  0  0  0  0  0  0  0  0  0  0  0
  -13.0631  -23.6361   25.4413 H   0  0  0  0  0  0  0  0  0  0  0  0
  -13.5634  -27.1359   25.3497 H   0  0  0  0  0  0  0  0  0  0  0  0
  -12.5479  -27.4411   27.2506 H   0  0  0  0  0  0  0  0  0  0  0  0
  1  2  1  0
  2  3  2  0
  2  4  2  0
  2  5  1  0
  5  6  1  0
  6  7  1  0
  6  8  1  0
  8  9  2  0
  9 10  1  0
 10 11  2  0
 11 12  1  0
 12 13  1  0
 12 14  2  0
 14  8  1  0
  1 15  1  0
  1 16  1  0
  1 17  1  0
  5 18  1  0
  5 19  1  0
  6 20  1  0
  7 21  1  0
  9 22  1  0
 10 23  1  0
 11 24  1  0
 13 25  1  0
 14 26  1  0
M  END
>  <Energy>  (291) 
22.524317381347888

>  <compound_id>  (291) 
3322

>  <target_id>  (291) 
1

>  <reference_id>  (291) 
110

>  <inspiration_ids>  (291) 
[110, 94]

>  <energy_score>  (291) 
-17.332538504933076

>  <distance_score>  (291) 
1.164505731885665

>  <path>  (291) 
/opt/xchem-fragalysis-2/maxwin/BulkDock/SCRATCH/505734/C3322-P110/C3322-P110.minimised.mol

>  <scratch_subdir>  (291) 
/opt/xchem-fragalysis-2/maxwin/BulkDock/SCRATCH/505734/C3322-P110

>  <fragmenstein_runtime>  (291) 
9.268781900405884

>  <fragmenstein_outcome>  (291) 
too moved

>  <fragmenstein_mode>  (291) 
expansion

>  <fragmenstein_error>  (291) 


$$$$
C3322-P94
     RDKit          3D

 26 26  0  0  0  0  0  0  0  0999 V2000
  -11.0964  -23.4123   31.9280 C   0  0  0  0  0  0  0  0  0  0  0  0
  -10.3541  -25.0322   31.8422 S   0  0  0  0  0  0  0  0  0  0  0  0
   -9.1641  -25.0114   31.0285 O   0  0  0  0  0  0  0  0  0  0  0  0
  -10.3430  -25.5346   33.2014 O   0  0  0  0  0  0  0  0  0  0  0  0
  -11.5283  -25.8781   30.9088 C   0  0  0  0  0  0  0  0  0  0  0  0
  -11.1656  -26.5065   29.5740 C   0  0  0  0  0  0  0  0  0  0  0  0
  -11.9506  -27.7198   29.5305 O   0  0  0  0  0  0  0  0  0  0  0  0
  -11.5644  -25.7350   28.3152 C   0  0  0  0  0  0  0  0  0  0  0  0
  -11.0967  -24.4456   28.1085 C   0  0  0  0  0  0  0  0  0  0  0  0
  -11.5908  -23.6774   27.0561 C   0  0  0  0  0  0  0  0  0  0  0  0
  -12.4609  -24.2121   26.1089 C   0  0  0  0  0  0  0  0  0  0  0  0
  -12.8787  -25.5113   26.2540 C   0  0  0  0  0  0  0  0  0  0  0  0
  -13.7207  -26.0680   25.3385 O   0  0  0  0  0  0  0  0  0  0  0  0
  -12.4667  -26.2477   27.3575 C   0  0  0  0  0  0  0  0  0  0  0  0
  -11.2855  -23.0279   30.9258 H   0  0  0  0  0  0  0  0  0  0  0  0
  -10.4158  -22.7553   32.4596 H   0  0  0  0  0  0  0  0  0  0  0  0
  -12.0302  -23.4866   32.4899 H   0  0  0  0  0  0  0  0  0  0  0  0
  -11.9123  -26.6301   31.6036 H   0  0  0  0  0  0  0  0  0  0  0  0
  -12.2455  -25.0876   30.7141 H   0  0  0  0  0  0  0  0  0  0  0  0
  -10.1101  -26.7784   29.5199 H   0  0  0  0  0  0  0  0  0  0  0  0
  -11.7197  -28.1318   28.6810 H   0  0  0  0  0  0  0  0  0  0  0  0
  -10.3948  -23.9950   28.7945 H   0  0  0  0  0  0  0  0  0  0  0  0
  -11.3255  -22.6277   26.9928 H   0  0  0  0  0  0  0  0  0  0  0  0
  -12.8253  -23.5954   25.2943 H   0  0  0  0  0  0  0  0  0  0  0  0
  -13.5150  -27.0270   25.3743 H   0  0  0  0  0  0  0  0  0  0  0  0
  -12.9335  -27.2122   27.4999 H   0  0  0  0  0  0  0  0  0  0  0  0
  1  2  1  0
  2  3  2  0
  2  4  2  0
  2  5  1  0
  5  6  1  0
  6  7  1  0
  6  8  1  0
  8  9  2  0
  9 10  1  0
 10 11  2  0
 11 12  1  0
 12 13  1  0
 12 14  2  0
 14  8  1  0
  1 15  1  0
  1 16  1  0
  1 17  1  0
  5 18  1  0
  5 19  1  0
  6 20  1  0
  7 21  1  0
  9 22  1  0
 10 23  1  0
 11 24  1  0
 13 25  1  0
 14 26  1  0
M  END
>  <Energy>  (292) 
18.509475149527027

>  <compound_id>  (292) 
3322

>  <target_id>  (292) 
1

>  <reference_id>  (292) 
94

>  <inspiration_ids>  (292) 
[110, 94]

>  <energy_score>  (292) 
-21.3473807367552

>  <distance_score>  (292) 
1.207631812233588

>  <path>  (292) 
/opt/xchem-fragalysis-2/maxwin/BulkDock/SCRATCH/505734/C3322-P94/C3322-P94.minimised.mol

>  <scratch_subdir>  (292) 
/opt/xchem-fragalysis-2/maxwin/BulkDock/SCRATCH/505734/C3322-P94

>  <fragmenstein_runtime>  (292) 
9.736881732940674

>  <fragmenstein_outcome>  (292) 
too moved

>  <fragmenstein_mode>  (292) 
expansion

>  <fragmenstein_error>  (292) 


$$$$
C1776-P110
     RDKit          3D

 48 50  0  0  0  0  0  0  0  0999 V2000
   -9.0950  -24.8758   32.3284 C   0  0  0  0  0  0  0  0  0  0  0  0
  -10.7831  -24.9636   31.8802 S   0  0  0  0  0  0  0  0  0  0  0  0
  -11.4581  -25.2742   33.1214 O   0  0  0  0  0  0  0  0  0  0  0  0
  -11.0834  -23.7391   31.1614 O   0  0  0  0  0  0  0  0  0  0  0  0
  -10.7868  -26.3592   30.7515 C   0  0  0  0  0  0  0  0  0  0  0  0
  -10.5319  -25.9155   29.3159 C   0  0  0  0  0  0  0  0  0  0  0  0
   -9.6542  -26.8449   28.6963 O   0  0  0  0  0  0  0  0  0  0  0  0
  -11.7056  -25.6844   28.3370 C   0  0  0  0  0  0  0  0  0  0  0  0
  -11.8061  -24.3331   27.9960 C   0  0  0  0  0  0  0  0  0  0  0  0
  -11.6757  -23.9942   26.6661 C   0  0  0  0  0  0  0  0  0  0  0  0
  -11.4162  -24.9814   25.7252 C   0  0  0  0  0  0  0  0  0  0  0  0
  -11.6022  -26.3223   26.0429 C   0  0  0  0  0  0  0  0  0  0  0  0
  -12.0695  -26.6334   27.3275 C   0  0  0  0  0  0  0  0  0  0  0  0
  -13.5807  -27.2244   27.2331 C   0  0  0  0  0  0  0  0  0  0  0  0
  -13.8917  -28.5275   28.0049 C   0  0  0  0  0  0  0  0  0  0  0  0
  -14.9634  -29.3585   27.5986 C   0  0  0  0  0  0  0  0  0  0  0  0
  -15.3004  -30.5331   28.2775 C   0  0  0  0  0  0  0  0  0  0  0  0
  -14.5622  -30.9238   29.3845 C   0  0  0  0  0  0  0  0  0  0  0  0
  -13.4758  -30.1558   29.7815 C   0  0  0  0  0  0  0  0  0  0  0  0
  -13.1411  -28.9879   29.0795 C   0  0  0  0  0  0  0  0  0  0  0  0
  -14.5130  -26.0825   27.4587 N   0  0  0  0  0  0  0  0  0  0  0  0
  -15.9347  -26.3888   27.6803 C   0  0  0  0  0  0  0  0  0  0  0  0
  -16.2641  -26.0663   26.2142 C   0  0  0  0  0  0  0  0  0  0  0  0
  -16.5154  -27.1897   25.3330 O   0  0  0  0  0  0  0  0  0  0  0  0
  -14.8611  -25.4446   26.1547 C   0  0  0  0  0  0  0  0  0  0  0  0
   -8.9240  -25.5403   33.1676 H   0  0  0  0  0  0  0  0  0  0  0  0
   -8.4772  -25.1562   31.4808 H   0  0  0  0  0  0  0  0  0  0  0  0
   -8.8989  -23.8595   32.6584 H   0  0  0  0  0  0  0  0  0  0  0  0
  -11.6943  -26.9260   30.9034 H   0  0  0  0  0  0  0  0  0  0  0  0
   -9.9860  -27.0238   31.0904 H   0  0  0  0  0  0  0  0  0  0  0  0
   -9.9234  -25.0031   29.3389 H   0  0  0  0  0  0  0  0  0  0  0  0
   -9.5705  -26.5946   27.7602 H   0  0  0  0  0  0  0  0  0  0  0  0
  -11.7322  -23.5423   28.7401 H   0  0  0  0  0  0  0  0  0  0  0  0
  -11.6769  -22.9499   26.3855 H   0  0  0  0  0  0  0  0  0  0  0  0
  -11.1376  -24.6671   24.7319 H   0  0  0  0  0  0  0  0  0  0  0  0
  -11.6515  -27.0544   25.2414 H   0  0  0  0  0  0  0  0  0  0  0  0
  -13.6986  -27.5385   26.1914 H   0  0  0  0  0  0  0  0  0  0  0  0
  -15.5541  -29.0898   26.7246 H   0  0  0  0  0  0  0  0  0  0  0  0
  -16.1400  -31.1359   27.9411 H   0  0  0  0  0  0  0  0  0  0  0  0
  -14.8242  -31.8276   29.9276 H   0  0  0  0  0  0  0  0  0  0  0  0
  -12.8749  -30.4644   30.6362 H   0  0  0  0  0  0  0  0  0  0  0  0
  -12.2895  -28.4069   29.4146 H   0  0  0  0  0  0  0  0  0  0  0  0
  -16.3899  -25.7042   28.3999 H   0  0  0  0  0  0  0  0  0  0  0  0
  -16.2375  -27.3709   28.0360 H   0  0  0  0  0  0  0  0  0  0  0  0
  -17.0647  -25.3273   26.0956 H   0  0  0  0  0  0  0  0  0  0  0  0
  -17.4393  -27.4331   25.5200 H   0  0  0  0  0  0  0  0  0  0  0  0
  -14.2836  -25.7288   25.2686 H   0  0  0  0  0  0  0  0  0  0  0  0
  -14.8700  -24.3511   26.1900 H   0  0  0  0  0  0  0  0  0  0  0  0
  1  2  1  0
  2  3  2  0
  2  4  2  0
  2  5  1  0
  5  6  1  0
  6  7  1  0
  6  8  1  0
  8  9  2  0
  9 10  1  0
 10 11  2  0
 11 12  1  0
 12 13  2  0
 13 14  1  0
 14 15  1  0
 15 16  2  0
 16 17  1  0
 17 18  2  0
 18 19  1  0
 19 20  2  0
 14 21  1  0
 21 22  1  0
 22 23  1  0
 23 24  1  0
 23 25  1  0
 13  8  1  0
 20 15  1  0
 25 21  1  0
  1 26  1  0
  1 27  1  0
  1 28  1  0
  5 29  1  0
  5 30  1  0
  6 31  1  0
  7 32  1  0
  9 33  1  0
 10 34  1  0
 11 35  1  0
 12 36  1  0
 14 37  1  0
 16 38  1  0
 17 39  1  0
 18 40  1  0
 19 41  1  0
 20 42  1  0
 22 43  1  0
 22 44  1  0
 23 45  1  0
 24 46  1  0
 25 47  1  0
 25 48  1  0
M  END
>  <Energy>  (293) 
167.95119987738224

>  <compound_id>  (293) 
1776

>  <target_id>  (293) 
1

>  <reference_id>  (293) 
110

>  <inspiration_ids>  (293) 
[110, 104]

>  <energy_score>  (293) 
1.6155330481068972

>  <distance_score>  (293) 
1.8721315977584851

>  <path>  (293) 
/opt/xchem-fragalysis-2/maxwin/BulkDock/SCRATCH/505734/C1776-P110/C1776-P110.minimised.mol

>  <scratch_subdir>  (293) 
/opt/xchem-fragalysis-2/maxwin/BulkDock/SCRATCH/505734/C1776-P110

>  <fragmenstein_runtime>  (293) 
15.94137978553772

>  <fragmenstein_outcome>  (293) 
too moved

>  <fragmenstein_mode>  (293) 
expansion

>  <fragmenstein_error>  (293) 


$$$$
C1776-P104
     RDKit          3D

 48 50  0  0  0  0  0  0  0  0999 V2000
  -10.0391  -25.1642   29.7478 C   0  0  0  0  0  0  0  0  0  0  0  0
   -9.8790  -26.2355   28.3699 S   0  0  0  0  0  0  0  0  0  0  0  0
   -9.8179  -27.5603   28.9227 O   0  0  0  0  0  0  0  0  0  0  0  0
   -8.7690  -25.6679   27.6342 O   0  0  0  0  0  0  0  0  0  0  0  0
  -11.2303  -26.2334   27.2153 C   0  0  0  0  0  0  0  0  0  0  0  0
  -11.6033  -24.8559   26.7987 C   0  0  0  0  0  0  0  0  0  0  0  0
  -10.6078  -24.5172   25.8110 O   0  0  0  0  0  0  0  0  0  0  0  0
  -12.8924  -24.3593   26.1567 C   0  0  0  0  0  0  0  0  0  0  0  0
  -12.7193  -22.9342   25.9581 C   0  0  0  0  0  0  0  0  0  0  0  0
  -13.5641  -22.1161   25.2328 C   0  0  0  0  0  0  0  0  0  0  0  0
  -14.6978  -22.6629   24.7143 C   0  0  0  0  0  0  0  0  0  0  0  0
  -14.9383  -24.0119   24.9342 C   0  0  0  0  0  0  0  0  0  0  0  0
  -14.1015  -24.9236   25.6842 C   0  0  0  0  0  0  0  0  0  0  0  0
  -14.8031  -26.3312   25.7178 C   0  0  0  0  0  0  0  0  0  0  0  0
  -14.1912  -27.5674   26.3627 C   0  0  0  0  0  0  0  0  0  0  0  0
  -14.7755  -28.3024   27.4198 C   0  0  0  0  0  0  0  0  0  0  0  0
  -14.2419  -29.5136   27.8799 C   0  0  0  0  0  0  0  0  0  0  0  0
  -13.0993  -30.0221   27.2875 C   0  0  0  0  0  0  0  0  0  0  0  0
  -12.5167  -29.3420   26.2230 C   0  0  0  0  0  0  0  0  0  0  0  0
  -13.0598  -28.1372   25.7619 C   0  0  0  0  0  0  0  0  0  0  0  0
  -16.2638  -26.1402   25.8833 N   0  0  0  0  0  0  0  0  0  0  0  0
  -16.8203  -25.7151   27.1581 C   0  0  0  0  0  0  0  0  0  0  0  0
  -18.0980  -26.5367   26.8023 C   0  0  0  0  0  0  0  0  0  0  0  0
  -18.6598  -27.3798   27.8310 O   0  0  0  0  0  0  0  0  0  0  0  0
  -17.2120  -27.2251   25.7183 C   0  0  0  0  0  0  0  0  0  0  0  0
   -9.0197  -24.9044   30.0193 H   0  0  0  0  0  0  0  0  0  0  0  0
  -10.3893  -25.6862   30.6226 H   0  0  0  0  0  0  0  0  0  0  0  0
  -10.6090  -24.2751   29.5065 H   0  0  0  0  0  0  0  0  0  0  0  0
  -12.0068  -26.8226   27.6284 H   0  0  0  0  0  0  0  0  0  0  0  0
  -10.8480  -26.8046   26.3650 H   0  0  0  0  0  0  0  0  0  0  0  0
  -11.4531  -24.1885   27.6521 H   0  0  0  0  0  0  0  0  0  0  0  0
   -9.7379  -24.5334   26.2534 H   0  0  0  0  0  0  0  0  0  0  0  0
  -11.8278  -22.4415   26.3536 H   0  0  0  0  0  0  0  0  0  0  0  0
  -13.3420  -21.0662   25.0867 H   0  0  0  0  0  0  0  0  0  0  0  0
  -15.4160  -22.0401   24.1868 H   0  0  0  0  0  0  0  0  0  0  0  0
  -15.8765  -24.3696   24.5088 H   0  0  0  0  0  0  0  0  0  0  0  0
  -14.7418  -26.6056   24.6498 H   0  0  0  0  0  0  0  0  0  0  0  0
  -15.6677  -27.9626   27.9279 H   0  0  0  0  0  0  0  0  0  0  0  0
  -14.7234  -30.0564   28.6898 H   0  0  0  0  0  0  0  0  0  0  0  0
  -12.6959  -30.9742   27.6126 H   0  0  0  0  0  0  0  0  0  0  0  0
  -11.6855  -29.7896   25.6832 H   0  0  0  0  0  0  0  0  0  0  0  0
  -12.6058  -27.6765   24.8861 H   0  0  0  0  0  0  0  0  0  0  0  0
  -17.0027  -24.6380   27.2330 H   0  0  0  0  0  0  0  0  0  0  0  0
  -16.3018  -26.0293   28.0660 H   0  0  0  0  0  0  0  0  0  0  0  0
  -18.8858  -25.9124   26.3610 H   0  0  0  0  0  0  0  0  0  0  0  0
  -17.9192  -27.8888   28.1960 H   0  0  0  0  0  0  0  0  0  0  0  0
  -16.8983  -28.2355   25.9843 H   0  0  0  0  0  0  0  0  0  0  0  0
  -17.6727  -27.2695   24.7259 H   0  0  0  0  0  0  0  0  0  0  0  0
  1  2  1  0
  2  3  2  0
  2  4  2  0
  2  5  1  0
  5  6  1  0
  6  7  1  0
  6  8  1  0
  8  9  2  0
  9 10  1  0
 10 11  2  0
 11 12  1  0
 12 13  2  0
 13 14  1  0
 14 15  1  0
 15 16  2  0
 16 17  1  0
 17 18  2  0
 18 19  1  0
 19 20  2  0
 14 21  1  0
 21 22  1  0
 22 23  1  0
 23 24  1  0
 23 25  1  0
 13  8  1  0
 20 15  1  0
 25 21  1  0
  1 26  1  0
  1 27  1  0
  1 28  1  0
  5 29  1  0
  5 30  1  0
  6 31  1  0
  7 32  1  0
  9 33  1  0
 10 34  1  0
 11 35  1  0
 12 36  1  0
 14 37  1  0
 16 38  1  0
 17 39  1  0
 18 40  1  0
 19 41  1  0
 20 42  1  0
 22 43  1  0
 22 44  1  0
 23 45  1  0
 24 46  1  0
 25 47  1  0
 25 48  1  0
M  END
>  <Energy>  (294) 
155.15972403259258

>  <compound_id>  (294) 
1776

>  <target_id>  (294) 
1

>  <reference_id>  (294) 
104

>  <inspiration_ids>  (294) 
[110, 104]

>  <energy_score>  (294) 
3.861998599646654

>  <distance_score>  (294) 
3.679497442009802

>  <path>  (294) 
/opt/xchem-fragalysis-2/maxwin/BulkDock/SCRATCH/505734/C1776-P104/C1776-P104.minimised.mol

>  <scratch_subdir>  (294) 
/opt/xchem-fragalysis-2/maxwin/BulkDock/SCRATCH/505734/C1776-P104

>  <fragmenstein_runtime>  (294) 
18.41068387031555

>  <fragmenstein_outcome>  (294) 
too moved

>  <fragmenstein_mode>  (294) 
expansion

>  <fragmenstein_error>  (294) 


$$$$
C3324-P110
     RDKit          3D

 42 44  0  0  0  0  0  0  0  0999 V2000
   -9.3231  -25.0774   32.6840 C   0  0  0  0  0  0  0  0  0  0  0  0
  -11.0283  -25.2263   32.2499 S   0  0  0  0  0  0  0  0  0  0  0  0
  -11.7164  -24.6035   33.3674 O   0  0  0  0  0  0  0  0  0  0  0  0
  -11.3079  -26.6040   31.8930 O   0  0  0  0  0  0  0  0  0  0  0  0
  -11.2058  -24.1158   30.8680 C   0  0  0  0  0  0  0  0  0  0  0  0
  -10.6944  -24.5942   29.5300 C   0  0  0  0  0  0  0  0  0  0  0  0
   -9.5979  -25.4231   29.9175 O   0  0  0  0  0  0  0  0  0  0  0  0
   -9.7845  -26.7507   29.4325 C   0  0  0  0  0  0  0  0  0  0  0  0
   -9.5258  -26.5083   27.9700 C   0  0  0  0  0  0  0  0  0  0  0  0
  -10.8460  -26.0538   27.4740 C   0  0  0  0  0  0  0  0  0  0  0  0
  -11.4015  -26.5859   26.3145 C   0  0  0  0  0  0  0  0  0  0  0  0
  -12.6421  -26.1475   25.9166 C   0  0  0  0  0  0  0  0  0  0  0  0
  -13.2859  -25.1465   26.6425 C   0  0  0  0  0  0  0  0  0  0  0  0
  -14.5065  -24.6209   26.1534 N   0  0  0  0  0  0  0  0  0  0  0  0
  -15.6123  -25.3888   25.7059 C   0  0  0  0  0  0  0  0  0  0  0  0
  -15.9071  -26.6452   26.2539 C   0  0  0  0  0  0  0  0  0  0  0  0
  -17.0189  -27.3761   25.8218 C   0  0  0  0  0  0  0  0  0  0  0  0
  -17.8665  -26.8497   24.8489 C   0  0  0  0  0  0  0  0  0  0  0  0
  -17.6179  -25.5828   24.3270 C   0  0  0  0  0  0  0  0  0  0  0  0
  -16.5184  -24.8570   24.7790 C   0  0  0  0  0  0  0  0  0  0  0  0
  -16.3372  -23.6021   24.2581 O   0  0  0  0  0  0  0  0  0  0  0  0
  -12.6416  -24.5696   27.7669 C   0  0  0  0  0  0  0  0  0  0  0  0
  -11.4716  -25.0915   28.2829 C   0  0  0  0  0  0  0  0  0  0  0  0
   -8.6744  -25.6413   32.0202 H   0  0  0  0  0  0  0  0  0  0  0  0
   -9.2249  -25.4389   33.7079 H   0  0  0  0  0  0  0  0  0  0  0  0
   -9.0585  -24.0215   32.6709 H   0  0  0  0  0  0  0  0  0  0  0  0
  -12.1626  -23.6424   30.7983 H   0  0  0  0  0  0  0  0  0  0  0  0
  -10.6188  -23.2644   31.2227 H   0  0  0  0  0  0  0  0  0  0  0  0
  -10.2550  -23.7189   29.0455 H   0  0  0  0  0  0  0  0  0  0  0  0
  -10.7842  -27.1476   29.6517 H   0  0  0  0  0  0  0  0  0  0  0  0
   -9.1033  -27.4130   29.9597 H   0  0  0  0  0  0  0  0  0  0  0  0
   -8.8394  -25.6715   27.8494 H   0  0  0  0  0  0  0  0  0  0  0  0
   -9.1182  -27.3001   27.3721 H   0  0  0  0  0  0  0  0  0  0  0  0
  -10.8862  -27.3508   25.7409 H   0  0  0  0  0  0  0  0  0  0  0  0
  -13.0964  -26.5722   25.0279 H   0  0  0  0  0  0  0  0  0  0  0  0
  -14.2824  -23.8890   25.4753 H   0  0  0  0  0  0  0  0  0  0  0  0
  -15.2724  -27.0659   27.0296 H   0  0  0  0  0  0  0  0  0  0  0  0
  -17.2270  -28.3509   26.2551 H   0  0  0  0  0  0  0  0  0  0  0  0
  -18.7321  -27.4145   24.5128 H   0  0  0  0  0  0  0  0  0  0  0  0
  -18.2856  -25.1547   23.5846 H   0  0  0  0  0  0  0  0  0  0  0  0
  -16.1579  -23.0160   25.0189 H   0  0  0  0  0  0  0  0  0  0  0  0
  -13.0219  -23.7006   28.2686 H   0  0  0  0  0  0  0  0  0  0  0  0
  1  2  1  0
  2  3  2  0
  2  4  2  0
  2  5  1  0
  5  6  1  0
  6  7  1  0
  7  8  1  0
  8  9  1  0
  9 10  1  0
 10 11  2  0
 11 12  1  0
 12 13  2  0
 13 14  1  0
 14 15  1  0
 15 16  2  0
 16 17  1  0
 17 18  2  0
 18 19  1  0
 19 20  2  0
 20 21  1  0
 13 22  1  0
 22 23  2  0
 23  6  1  0
 23 10  1  0
 20 15  1  0
  1 24  1  0
  1 25  1  0
  1 26  1  0
  5 27  1  0
  5 28  1  0
  6 29  1  0
  8 30  1  0
  8 31  1  0
  9 32  1  0
  9 33  1  0
 11 34  1  0
 12 35  1  0
 14 36  1  0
 16 37  1  0
 17 38  1  0
 18 39  1  0
 19 40  1  0
 21 41  1  0
 22 42  1  0
M  END
>  <Energy>  (295) 
86.693604005332702

>  <compound_id>  (295) 
3324

>  <target_id>  (295) 
1

>  <reference_id>  (295) 
110

>  <inspiration_ids>  (295) 
[110, 115]

>  <energy_score>  (295) 
-16.425054005254935

>  <distance_score>  (295) 
1.6903215444004074

>  <path>  (295) 
/opt/xchem-fragalysis-2/maxwin/BulkDock/SCRATCH/505734/C3324-P110/C3324-P110.minimised.mol

>  <scratch_subdir>  (295) 
/opt/xchem-fragalysis-2/maxwin/BulkDock/SCRATCH/505734/C3324-P110

>  <fragmenstein_runtime>  (295) 
11.705109119415283

>  <fragmenstein_outcome>  (295) 
too moved

>  <fragmenstein_mode>  (295) 
expansion

>  <fragmenstein_error>  (295) 


$$$$
C3324-P115
     RDKit          3D

 42 44  0  0  0  0  0  0  0  0999 V2000
   -9.1544  -25.2445   32.7448 C   0  0  0  0  0  0  0  0  0  0  0  0
   -9.7526  -25.7410   31.1683 S   0  0  0  0  0  0  0  0  0  0  0  0
   -8.8395  -25.3469   30.1261 O   0  0  0  0  0  0  0  0  0  0  0  0
  -10.1987  -27.1051   31.3364 O   0  0  0  0  0  0  0  0  0  0  0  0
  -11.0796  -24.6728   30.9383 C   0  0  0  0  0  0  0  0  0  0  0  0
  -11.7933  -24.7232   29.5846 C   0  0  0  0  0  0  0  0  0  0  0  0
  -12.8032  -25.7370   29.7530 O   0  0  0  0  0  0  0  0  0  0  0  0
  -12.4535  -27.0447   29.3527 C   0  0  0  0  0  0  0  0  0  0  0  0
  -11.2079  -27.1864   28.5460 C   0  0  0  0  0  0  0  0  0  0  0  0
  -11.0470  -26.0730   27.6088 C   0  0  0  0  0  0  0  0  0  0  0  0
  -11.0343  -26.4414   26.2759 C   0  0  0  0  0  0  0  0  0  0  0  0
  -11.8684  -25.7380   25.4678 C   0  0  0  0  0  0  0  0  0  0  0  0
  -12.3955  -24.5266   25.8825 C   0  0  0  0  0  0  0  0  0  0  0  0
  -13.5212  -23.9977   25.1972 N   0  0  0  0  0  0  0  0  0  0  0  0
  -14.7947  -24.6012   24.9925 C   0  0  0  0  0  0  0  0  0  0  0  0
  -15.0672  -25.9512   25.2288 C   0  0  0  0  0  0  0  0  0  0  0  0
  -16.3703  -26.4657   25.1260 C   0  0  0  0  0  0  0  0  0  0  0  0
  -17.4331  -25.6344   24.7841 C   0  0  0  0  0  0  0  0  0  0  0  0
  -17.1910  -24.2944   24.5107 C   0  0  0  0  0  0  0  0  0  0  0  0
  -15.8779  -23.8114   24.5719 C   0  0  0  0  0  0  0  0  0  0  0  0
  -15.6098  -22.5437   24.1177 O   0  0  0  0  0  0  0  0  0  0  0  0
  -11.9283  -23.9737   27.1020 C   0  0  0  0  0  0  0  0  0  0  0  0
  -11.3825  -24.8140   28.0900 C   0  0  0  0  0  0  0  0  0  0  0  0
   -8.2754  -25.8504   32.9616 H   0  0  0  0  0  0  0  0  0  0  0  0
   -8.9254  -24.1821   32.7100 H   0  0  0  0  0  0  0  0  0  0  0  0
   -9.9238  -25.4413   33.4947 H   0  0  0  0  0  0  0  0  0  0  0  0
  -11.7642  -24.8937   31.7610 H   0  0  0  0  0  0  0  0  0  0  0  0
  -10.7221  -23.6587   31.1187 H   0  0  0  0  0  0  0  0  0  0  0  0
  -12.3213  -23.7672   29.6407 H   0  0  0  0  0  0  0  0  0  0  0  0
  -13.3141  -27.4134   28.7790 H   0  0  0  0  0  0  0  0  0  0  0  0
  -12.3675  -27.7181   30.2028 H   0  0  0  0  0  0  0  0  0  0  0  0
  -10.2988  -27.2537   29.1182 H   0  0  0  0  0  0  0  0  0  0  0  0
  -11.4136  -28.1061   28.0016 H   0  0  0  0  0  0  0  0  0  0  0  0
  -10.7058  -27.4208   25.9456 H   0  0  0  0  0  0  0  0  0  0  0  0
  -12.1921  -26.2291   24.5643 H   0  0  0  0  0  0  0  0  0  0  0  0
  -13.6165  -22.9802   25.3331 H   0  0  0  0  0  0  0  0  0  0  0  0
  -14.2841  -26.6068   25.5853 H   0  0  0  0  0  0  0  0  0  0  0  0
  -16.5597  -27.5110   25.3532 H   0  0  0  0  0  0  0  0  0  0  0  0
  -18.4426  -26.0314   24.7215 H   0  0  0  0  0  0  0  0  0  0  0  0
  -18.0101  -23.6522   24.2012 H   0  0  0  0  0  0  0  0  0  0  0  0
  -16.4083  -21.9863   24.1470 H   0  0  0  0  0  0  0  0  0  0  0  0
  -12.2546  -22.9776   27.3810 H   0  0  0  0  0  0  0  0  0  0  0  0
  1  2  1  0
  2  3  2  0
  2  4  2  0
  2  5  1  0
  5  6  1  0
  6  7  1  0
  7  8  1  0
  8  9  1  0
  9 10  1  0
 10 11  2  0
 11 12  1  0
 12 13  2  0
 13 14  1  0
 14 15  1  0
 15 16  2  0
 16 17  1  0
 17 18  2  0
 18 19  1  0
 19 20  2  0
 20 21  1  0
 13 22  1  0
 22 23  2  0
 23  6  1  0
 23 10  1  0
 20 15  1  0
  1 24  1  0
  1 25  1  0
  1 26  1  0
  5 27  1  0
  5 28  1  0
  6 29  1  0
  8 30  1  0
  8 31  1  0
  9 32  1  0
  9 33  1  0
 11 34  1  0
 12 35  1  0
 14 36  1  0
 16 37  1  0
 17 38  1  0
 18 39  1  0
 19 40  1  0
 21 41  1  0
 22 42  1  0
M  END
>  <Energy>  (296) 
114.54158335245221

>  <compound_id>  (296) 
3324

>  <target_id>  (296) 
1

>  <reference_id>  (296) 
115

>  <inspiration_ids>  (296) 
[110, 115]

>  <energy_score>  (296) 
11.422925341864357

>  <distance_score>  (296) 
2.1002376482877363

>  <path>  (296) 
/opt/xchem-fragalysis-2/maxwin/BulkDock/SCRATCH/505734/C3324-P115/C3324-P115.minimised.mol

>  <scratch_subdir>  (296) 
/opt/xchem-fragalysis-2/maxwin/BulkDock/SCRATCH/505734/C3324-P115

>  <fragmenstein_runtime>  (296) 
11.274391889572144

>  <fragmenstein_outcome>  (296) 
too moved

>  <fragmenstein_mode>  (296) 
expansion

>  <fragmenstein_error>  (296) 


$$$$
C1921-P110
     RDKit          3D

 45 46  0  0  0  0  0  0  0  0999 V2000
  -11.0080  -23.5716   31.7376 C   0  0  0  0  0  0  0  0  0  0  0  0
  -11.3433  -22.7394   30.5146 C   0  0  0  0  0  0  0  0  0  0  0  0
  -11.4452  -21.5462   30.6212 O   0  0  0  0  0  0  0  0  0  0  0  0
  -11.5740  -23.5909   29.3977 N   0  0  0  0  0  0  0  0  0  0  0  0
  -10.2733  -23.7765   28.5777 C   0  0  0  0  0  0  0  0  0  0  0  0
  -10.2422  -24.7559   27.3607 C   0  0  0  0  0  0  0  0  0  0  0  0
  -11.4480  -25.5931   27.4532 N   0  0  0  0  0  0  0  0  0  0  0  0
  -11.3677  -26.3916   28.5855 C   0  0  0  0  0  0  0  0  0  0  0  0
  -11.8640  -27.5138   29.0906 C   0  0  0  0  0  0  0  0  0  0  0  0
  -12.9288  -28.4233   28.5234 C   0  0  0  0  0  0  0  0  0  0  0  0
  -12.3533  -29.4089   27.6916 O   0  0  0  0  0  0  0  0  0  0  0  0
  -14.0777  -27.7995   27.7126 C   0  0  0  0  0  0  0  0  0  0  0  0
  -13.8801  -27.1592   26.4766 C   0  0  0  0  0  0  0  0  0  0  0  0
  -14.9277  -26.5502   25.7797 C   0  0  0  0  0  0  0  0  0  0  0  0
  -16.2114  -26.5827   26.3025 C   0  0  0  0  0  0  0  0  0  0  0  0
  -16.4459  -27.2447   27.5032 C   0  0  0  0  0  0  0  0  0  0  0  0
  -15.3955  -27.8604   28.1912 C   0  0  0  0  0  0  0  0  0  0  0  0
  -11.2528  -27.7619   30.8134 S   0  0  0  0  0  0  0  0  0  0  0  0
   -9.5137  -27.4808   30.6405 C   0  0  0  0  0  0  0  0  0  0  0  0
  -11.5699  -29.1202   31.2163 O   0  0  0  0  0  0  0  0  0  0  0  0
  -11.6359  -26.6800   31.6902 O   0  0  0  0  0  0  0  0  0  0  0  0
  -12.5571  -24.5833   27.3504 C   0  0  0  0  0  0  0  0  0  0  0  0
  -12.1056  -23.3000   28.0740 C   0  0  0  0  0  0  0  0  0  0  0  0
  -10.4798  -24.4842   31.4642 H   0  0  0  0  0  0  0  0  0  0  0  0
  -11.9121  -23.8094   32.2975 H   0  0  0  0  0  0  0  0  0  0  0  0
  -10.3455  -22.9991   32.3871 H   0  0  0  0  0  0  0  0  0  0  0  0
   -9.5918  -24.2787   29.2766 H   0  0  0  0  0  0  0  0  0  0  0  0
   -9.8119  -22.8185   28.3497 H   0  0  0  0  0  0  0  0  0  0  0  0
  -10.2373  -24.2327   26.4037 H   0  0  0  0  0  0  0  0  0  0  0  0
   -9.3524  -25.3803   27.4407 H   0  0  0  0  0  0  0  0  0  0  0  0
  -10.6987  -25.9146   29.2868 H   0  0  0  0  0  0  0  0  0  0  0  0
  -13.3825  -28.9943   29.3404 H   0  0  0  0  0  0  0  0  0  0  0  0
  -11.8434  -28.9255   27.0092 H   0  0  0  0  0  0  0  0  0  0  0  0
  -12.8840  -27.1115   26.0391 H   0  0  0  0  0  0  0  0  0  0  0  0
  -14.7342  -26.0449   24.8377 H   0  0  0  0  0  0  0  0  0  0  0  0
  -17.0311  -26.1010   25.7761 H   0  0  0  0  0  0  0  0  0  0  0  0
  -17.4531  -27.2859   27.9109 H   0  0  0  0  0  0  0  0  0  0  0  0
  -15.6235  -28.3720   29.1247 H   0  0  0  0  0  0  0  0  0  0  0  0
   -9.2665  -27.4872   29.5872 H   0  0  0  0  0  0  0  0  0  0  0  0
   -8.9352  -28.2328   31.1503 H   0  0  0  0  0  0  0  0  0  0  0  0
   -9.2675  -26.4931   31.0392 H   0  0  0  0  0  0  0  0  0  0  0  0
  -12.7642  -24.3621   26.2973 H   0  0  0  0  0  0  0  0  0  0  0  0
  -13.4755  -24.9510   27.8067 H   0  0  0  0  0  0  0  0  0  0  0  0
  -11.5793  -22.5629   27.4447 H   0  0  0  0  0  0  0  0  0  0  0  0
  -12.9563  -22.7248   28.3768 H   0  0  0  0  0  0  0  0  0  0  0  0
  1  2  1  0
  2  3  2  0
  2  4  1  0
  4  5  1  0
  5  6  1  0
  6  7  1  0
  7  8  1  0
  8  9  2  3
  9 10  1  0
 10 11  1  0
 10 12  1  0
 12 13  2  0
 13 14  1  0
 14 15  2  0
 15 16  1  0
 16 17  2  0
  9 18  1  0
 18 19  1  0
 18 20  2  0
 18 21  2  0
  7 22  1  0
 22 23  1  0
 23  4  1  0
 17 12  1  0
  1 24  1  0
  1 25  1  0
  1 26  1  0
  5 27  1  0
  5 28  1  0
  6 29  1  0
  6 30  1  0
  8 31  1  0
 10 32  1  0
 11 33  1  0
 13 34  1  0
 14 35  1  0
 15 36  1  0
 16 37  1  0
 17 38  1  0
 19 39  1  0
 19 40  1  0
 19 41  1  0
 22 42  1  0
 22 43  1  0
 23 44  1  0
 23 45  1  0
M  END
>  <Energy>  (297) 
209.43130064974662

>  <compound_id>  (297) 
1921

>  <target_id>  (297) 
1

>  <reference_id>  (297) 
110

>  <inspiration_ids>  (297) 
[110, 119]

>  <energy_score>  (297) 
73.0990973945602

>  <distance_score>  (297) 
2.866412584618628

>  <path>  (297) 
/opt/xchem-fragalysis-2/maxwin/BulkDock/SCRATCH/505734/C1921-P110/C1921-P110.minimised.mol

>  <scratch_subdir>  (297) 
/opt/xchem-fragalysis-2/maxwin/BulkDock/SCRATCH/505734/C1921-P110

>  <fragmenstein_runtime>  (297) 
15.367239475250244

>  <fragmenstein_outcome>  (297) 
too moved

>  <fragmenstein_mode>  (297) 
expansion

>  <fragmenstein_error>  (297) 


$$$$
C1921-P119
     RDKit          3D

 45 46  0  0  0  0  0  0  0  0999 V2000
  -11.6986  -19.9771   32.9145 C   0  0  0  0  0  0  0  0  0  0  0  0
  -11.1520  -20.3407   31.5481 C   0  0  0  0  0  0  0  0  0  0  0  0
  -10.3876  -19.6191   30.9766 O   0  0  0  0  0  0  0  0  0  0  0  0
  -11.7364  -21.5617   31.1480 N   0  0  0  0  0  0  0  0  0  0  0  0
  -10.8503  -22.7497   31.6005 C   0  0  0  0  0  0  0  0  0  0  0  0
   -9.5794  -23.4200   31.0039 C   0  0  0  0  0  0  0  0  0  0  0  0
   -9.9333  -23.9764   29.6778 N   0  0  0  0  0  0  0  0  0  0  0  0
  -10.5333  -25.2648   29.6752 C   0  0  0  0  0  0  0  0  0  0  0  0
  -11.1285  -26.0418   28.7415 C   0  0  0  0  0  0  0  0  0  0  0  0
  -11.2828  -25.7421   27.2844 C   0  0  0  0  0  0  0  0  0  0  0  0
  -10.2935  -24.8405   26.8127 O   0  0  0  0  0  0  0  0  0  0  0  0
  -12.6427  -25.3084   26.7592 C   0  0  0  0  0  0  0  0  0  0  0  0
  -13.6938  -26.2201   26.5667 C   0  0  0  0  0  0  0  0  0  0  0  0
  -14.9651  -25.8249   26.1497 C   0  0  0  0  0  0  0  0  0  0  0  0
  -15.1985  -24.5023   25.8304 C   0  0  0  0  0  0  0  0  0  0  0  0
  -14.1414  -23.6063   25.8586 C   0  0  0  0  0  0  0  0  0  0  0  0
  -12.8924  -23.9911   26.3546 C   0  0  0  0  0  0  0  0  0  0  0  0
  -11.6397  -27.7019   29.2351 S   0  0  0  0  0  0  0  0  0  0  0  0
  -10.4844  -28.8448   28.5496 C   0  0  0  0  0  0  0  0  0  0  0  0
  -12.9059  -28.0249   28.6117 O   0  0  0  0  0  0  0  0  0  0  0  0
  -11.5876  -27.8646   30.6766 O   0  0  0  0  0  0  0  0  0  0  0  0
  -10.4889  -22.7906   29.0031 C   0  0  0  0  0  0  0  0  0  0  0  0
  -11.6806  -22.2976   29.8305 C   0  0  0  0  0  0  0  0  0  0  0  0
  -11.5217  -18.9158   33.1075 H   0  0  0  0  0  0  0  0  0  0  0  0
  -11.2023  -20.5652   33.6894 H   0  0  0  0  0  0  0  0  0  0  0  0
  -12.7778  -20.1531   32.9547 H   0  0  0  0  0  0  0  0  0  0  0  0
  -11.5353  -23.5522   31.8213 H   0  0  0  0  0  0  0  0  0  0  0  0
  -10.5161  -22.4461   32.6042 H   0  0  0  0  0  0  0  0  0  0  0  0
   -8.7417  -22.7345   30.9255 H   0  0  0  0  0  0  0  0  0  0  0  0
   -9.2332  -24.2140   31.6789 H   0  0  0  0  0  0  0  0  0  0  0  0
  -10.4394  -25.6912   30.6768 H   0  0  0  0  0  0  0  0  0  0  0  0
  -10.9897  -26.6382   26.7710 H   0  0  0  0  0  0  0  0  0  0  0  0
   -9.6737  -24.6788   27.5529 H   0  0  0  0  0  0  0  0  0  0  0  0
  -13.5687  -27.2837   26.7191 H   0  0  0  0  0  0  0  0  0  0  0  0
  -15.7627  -26.5586   26.0664 H   0  0  0  0  0  0  0  0  0  0  0  0
  -16.1887  -24.1750   25.5295 H   0  0  0  0  0  0  0  0  0  0  0  0
  -14.2891  -22.5852   25.5141 H   0  0  0  0  0  0  0  0  0  0  0  0
  -12.1089  -23.2377   26.3616 H   0  0  0  0  0  0  0  0  0  0  0  0
  -11.0134  -29.7702   28.3065 H   0  0  0  0  0  0  0  0  0  0  0  0
   -9.7522  -29.1163   29.2841 H   0  0  0  0  0  0  0  0  0  0  0  0
   -9.9661  -28.4297   27.6864 H   0  0  0  0  0  0  0  0  0  0  0  0
   -9.7291  -22.0162   28.8784 H   0  0  0  0  0  0  0  0  0  0  0  0
  -10.8329  -23.0077   28.0004 H   0  0  0  0  0  0  0  0  0  0  0  0
  -12.1143  -21.5281   29.1749 H   0  0  0  0  0  0  0  0  0  0  0  0
  -12.4312  -23.0769   29.8061 H   0  0  0  0  0  0  0  0  0  0  0  0
  1  2  1  0
  2  3  2  0
  2  4  1  0
  4  5  1  0
  5  6  1  0
  6  7  1  0
  7  8  1  0
  8  9  2  3
  9 10  1  0
 10 11  1  0
 10 12  1  0
 12 13  2  0
 13 14  1  0
 14 15  2  0
 15 16  1  0
 16 17  2  0
  9 18  1  0
 18 19  1  0
 18 20  2  0
 18 21  2  0
  7 22  1  0
 22 23  1  0
 23  4  1  0
 17 12  1  0
  1 24  1  0
  1 25  1  0
  1 26  1  0
  5 27  1  0
  5 28  1  0
  6 29  1  0
  6 30  1  0
  8 31  1  0
 10 32  1  0
 11 33  1  0
 13 34  1  0
 14 35  1  0
 15 36  1  0
 16 37  1  0
 17 38  1  0
 19 39  1  0
 19 40  1  0
 19 41  1  0
 22 42  1  0
 22 43  1  0
 23 44  1  0
 23 45  1  0
M  END
>  <Energy>  (298) 
181.56750438617243

>  <compound_id>  (298) 
1921

>  <target_id>  (298) 
1

>  <reference_id>  (298) 
119

>  <inspiration_ids>  (298) 
[110, 119]

>  <energy_score>  (298) 
45.2353011309861

>  <distance_score>  (298) 
2.7594590588563785

>  <path>  (298) 
/opt/xchem-fragalysis-2/maxwin/BulkDock/SCRATCH/505734/C1921-P119/C1921-P119.minimised.mol

>  <scratch_subdir>  (298) 
/opt/xchem-fragalysis-2/maxwin/BulkDock/SCRATCH/505734/C1921-P119

>  <fragmenstein_runtime>  (298) 
14.86195421218872

>  <fragmenstein_outcome>  (298) 
too moved

>  <fragmenstein_mode>  (298) 
expansion

>  <fragmenstein_error>  (298) 


$$$$
C3325-P110
     RDKit          3D

 55 56  0  0  0  0  0  0  0  0999 V2000
  -10.5784  -25.5317   33.7216 C   0  0  0  0  0  0  0  0  0  0  0  0
  -10.7176  -25.9513   32.2805 C   0  0  0  0  0  0  0  0  0  0  0  0
   -9.5171  -25.4982   31.4837 C   0  0  0  0  0  0  0  0  0  0  0  0
   -9.5588  -25.6309   29.9763 C   0  0  0  0  0  0  0  0  0  0  0  0
   -8.8093  -24.9290   29.3837 O   0  0  0  0  0  0  0  0  0  0  0  0
  -10.4121  -26.6296   29.5270 N   0  0  0  0  0  0  0  0  0  0  0  0
  -10.5861  -27.1856   28.2541 C   0  0  0  0  0  0  0  0  0  0  0  0
  -10.9959  -26.5978   26.9366 C   0  0  0  0  0  0  0  0  0  0  0  0
  -10.5618  -25.2877   26.5777 N   0  0  0  0  0  0  0  0  0  0  0  0
  -11.5220  -24.9242   25.5610 C   0  0  0  0  0  0  0  0  0  0  0  0
  -12.8152  -25.4323   26.1622 C   0  0  0  0  0  0  0  0  0  0  0  0
  -13.8523  -25.7728   25.0583 C   0  0  0  0  0  0  0  0  0  0  0  0
  -15.2020  -26.2918   25.5323 C   0  0  0  0  0  0  0  0  0  0  0  0
  -15.7644  -25.3696   26.5953 C   0  0  0  0  0  0  0  0  0  0  0  0
  -14.7254  -25.2221   27.7116 C   0  0  0  0  0  0  0  0  0  0  0  0
  -13.4147  -24.4938   27.2078 C   0  0  0  0  0  0  0  0  0  0  0  0
  -12.4745  -23.5413   28.1724 C   0  0  0  0  0  0  0  0  0  0  0  0
  -11.5017  -22.8927   27.3560 O   0  0  0  0  0  0  0  0  0  0  0  0
  -11.7592  -23.7955   29.4921 C   0  0  0  0  0  0  0  0  0  0  0  0
  -11.9380  -22.3445   30.6249 S   0  0  0  0  0  0  0  0  0  0  0  0
  -11.5475  -22.7460   32.2759 C   0  0  0  0  0  0  0  0  0  0  0  0
  -11.0266  -21.3014   30.2114 O   0  0  0  0  0  0  0  0  0  0  0  0
  -13.3389  -22.0319   30.7362 O   0  0  0  0  0  0  0  0  0  0  0  0
  -12.4246  -26.6691   26.8097 N   0  0  0  0  0  0  0  0  0  0  0  0
  -11.2224  -24.6907   33.9605 H   0  0  0  0  0  0  0  0  0  0  0  0
  -10.9170  -26.3244   34.3736 H   0  0  0  0  0  0  0  0  0  0  0  0
   -9.5462  -25.3000   33.9918 H   0  0  0  0  0  0  0  0  0  0  0  0
  -11.6311  -25.5368   31.8731 H   0  0  0  0  0  0  0  0  0  0  0  0
  -10.8397  -27.0378   32.2357 H   0  0  0  0  0  0  0  0  0  0  0  0
   -8.6111  -26.0198   31.8007 H   0  0  0  0  0  0  0  0  0  0  0  0
   -9.3211  -24.4505   31.7044 H   0  0  0  0  0  0  0  0  0  0  0  0
  -10.8402  -27.0750   30.3228 H   0  0  0  0  0  0  0  0  0  0  0  0
  -11.2170  -28.0533   28.4124 H   0  0  0  0  0  0  0  0  0  0  0  0
   -9.5340  -27.3583   28.0482 H   0  0  0  0  0  0  0  0  0  0  0  0
  -10.6091  -27.2761   26.1632 H   0  0  0  0  0  0  0  0  0  0  0  0
  -10.5554  -24.6166   27.3397 H   0  0  0  0  0  0  0  0  0  0  0  0
  -11.5224  -23.8732   25.2686 H   0  0  0  0  0  0  0  0  0  0  0  0
  -11.2640  -25.4981   24.6814 H   0  0  0  0  0  0  0  0  0  0  0  0
  -14.0595  -24.8639   24.4816 H   0  0  0  0  0  0  0  0  0  0  0  0
  -13.4350  -26.5214   24.3791 H   0  0  0  0  0  0  0  0  0  0  0  0
  -15.0959  -27.3059   25.9349 H   0  0  0  0  0  0  0  0  0  0  0  0
  -15.8953  -26.3593   24.6862 H   0  0  0  0  0  0  0  0  0  0  0  0
  -16.0193  -24.4003   26.1554 H   0  0  0  0  0  0  0  0  0  0  0  0
  -16.6861  -25.8056   26.9964 H   0  0  0  0  0  0  0  0  0  0  0  0
  -15.1537  -24.7819   28.6034 H   0  0  0  0  0  0  0  0  0  0  0  0
  -14.5695  -26.2648   27.9826 H   0  0  0  0  0  0  0  0  0  0  0  0
  -13.7833  -23.7193   26.5145 H   0  0  0  0  0  0  0  0  0  0  0  0
  -13.0658  -22.7050   28.4654 H   0  0  0  0  0  0  0  0  0  0  0  0
  -11.9747  -22.2043   26.8351 H   0  0  0  0  0  0  0  0  0  0  0  0
  -10.7025  -23.7832   29.2971 H   0  0  0  0  0  0  0  0  0  0  0  0
  -12.0610  -24.6978   29.9872 H   0  0  0  0  0  0  0  0  0  0  0  0
  -12.2013  -23.5447   32.6074 H   0  0  0  0  0  0  0  0  0  0  0  0
  -10.4949  -22.9757   32.3656 H   0  0  0  0  0  0  0  0  0  0  0  0
  -11.7774  -21.8643   32.8796 H   0  0  0  0  0  0  0  0  0  0  0  0
  -12.8355  -26.8168   27.7137 H   0  0  0  0  0  0  0  0  0  0  0  0
  1  2  1  0
  2  3  1  0
  3  4  1  0
  4  5  2  0
  4  6  1  0
  6  7  1  0
  7  8  1  0
  8  9  1  0
  9 10  1  0
 10 11  1  0
 11 12  1  0
 12 13  1  0
 13 14  1  0
 14 15  1  0
 15 16  1  0
 16 17  1  0
 17 18  1  0
 17 19  1  0
 19 20  1  0
 20 21  1  0
 20 22  2  0
 20 23  2  0
 11 24  1  0
 24  8  1  0
 16 11  1  0
  1 25  1  0
  1 26  1  0
  1 27  1  0
  2 28  1  0
  2 29  1  0
  3 30  1  0
  3 31  1  0
  6 32  1  0
  7 33  1  0
  7 34  1  0
  8 35  1  0
  9 36  1  0
 10 37  1  0
 10 38  1  0
 12 39  1  0
 12 40  1  0
 13 41  1  0
 13 42  1  0
 14 43  1  0
 14 44  1  0
 15 45  1  0
 15 46  1  0
 16 47  1  0
 17 48  1  0
 18 49  1  0
 19 50  1  0
 19 51  1  0
 21 52  1  0
 21 53  1  0
 21 54  1  0
 24 55  1  0
M  END
>  <Energy>  (299) 
111.74222816018209

>  <compound_id>  (299) 
3325

>  <target_id>  (299) 
1

>  <reference_id>  (299) 
110

>  <inspiration_ids>  (299) 
[110, 173]

>  <energy_score>  (299) 
20.45134339937971

>  <distance_score>  (299) 
4.0136224136630405

>  <path>  (299) 
/opt/xchem-fragalysis-2/maxwin/BulkDock/SCRATCH/505734/C3325-P110/C3325-P110.minimised.mol

>  <scratch_subdir>  (299) 
/opt/xchem-fragalysis-2/maxwin/BulkDock/SCRATCH/505734/C3325-P110

>  <fragmenstein_runtime>  (299) 
15.507710933685303

>  <fragmenstein_outcome>  (299) 
too moved

>  <fragmenstein_mode>  (299) 
expansion

>  <fragmenstein_error>  (299) 


$$$$
C3325-P173
     RDKit          3D

 55 56  0  0  0  0  0  0  0  0999 V2000
   -9.4876  -24.8642   26.9634 C   0  0  0  0  0  0  0  0  0  0  0  0
  -10.9542  -24.8095   27.3091 C   0  0  0  0  0  0  0  0  0  0  0  0
  -11.9233  -24.2364   26.2824 C   0  0  0  0  0  0  0  0  0  0  0  0
  -13.1632  -25.1398   26.2794 C   0  0  0  0  0  0  0  0  0  0  0  0
  -13.4915  -25.7746   25.3546 O   0  0  0  0  0  0  0  0  0  0  0  0
  -13.7455  -25.0823   27.7186 N   0  0  0  0  0  0  0  0  0  0  0  0
  -14.7854  -25.8605   28.3373 C   0  0  0  0  0  0  0  0  0  0  0  0
  -14.4354  -26.2047   29.8156 C   0  0  0  0  0  0  0  0  0  0  0  0
  -15.5466  -26.6499   30.6006 N   0  0  0  0  0  0  0  0  0  0  0  0
  -16.1795  -25.3770   30.9426 C   0  0  0  0  0  0  0  0  0  0  0  0
  -15.0156  -24.4060   31.2886 C   0  0  0  0  0  0  0  0  0  0  0  0
  -15.0091  -22.9565   30.8019 C   0  0  0  0  0  0  0  0  0  0  0  0
  -16.1696  -22.0728   31.3819 C   0  0  0  0  0  0  0  0  0  0  0  0
  -17.1222  -22.8498   32.2933 C   0  0  0  0  0  0  0  0  0  0  0  0
  -16.3855  -23.7607   33.2814 C   0  0  0  0  0  0  0  0  0  0  0  0
  -14.9888  -24.1852   32.8126 C   0  0  0  0  0  0  0  0  0  0  0  0
  -13.8719  -23.2498   33.3124 C   0  0  0  0  0  0  0  0  0  0  0  0
  -12.7731  -23.3479   32.3900 O   0  0  0  0  0  0  0  0  0  0  0  0
  -13.9579  -21.7649   33.5743 C   0  0  0  0  0  0  0  0  0  0  0  0
  -15.0885  -21.1715   34.7857 S   0  0  0  0  0  0  0  0  0  0  0  0
  -14.4814  -19.5583   35.0969 C   0  0  0  0  0  0  0  0  0  0  0  0
  -16.4023  -20.9293   34.2309 O   0  0  0  0  0  0  0  0  0  0  0  0
  -14.9131  -21.9467   35.9988 O   0  0  0  0  0  0  0  0  0  0  0  0
  -13.8833  -25.1165   30.6319 N   0  0  0  0  0  0  0  0  0  0  0  0
   -9.0409  -25.7753   27.3562 H   0  0  0  0  0  0  0  0  0  0  0  0
   -9.3406  -24.9094   25.8799 H   0  0  0  0  0  0  0  0  0  0  0  0
   -8.9296  -24.0141   27.3528 H   0  0  0  0  0  0  0  0  0  0  0  0
  -11.0847  -24.2338   28.2311 H   0  0  0  0  0  0  0  0  0  0  0  0
  -11.2512  -25.8547   27.4478 H   0  0  0  0  0  0  0  0  0  0  0  0
  -11.4839  -24.2300   25.2842 H   0  0  0  0  0  0  0  0  0  0  0  0
  -12.2126  -23.2120   26.5316 H   0  0  0  0  0  0  0  0  0  0  0  0
  -13.1647  -24.4804   28.2965 H   0  0  0  0  0  0  0  0  0  0  0  0
  -14.9232  -26.7783   27.7549 H   0  0  0  0  0  0  0  0  0  0  0  0
  -15.7056  -25.2869   28.2413 H   0  0  0  0  0  0  0  0  0  0  0  0
  -13.7728  -27.0706   29.7769 H   0  0  0  0  0  0  0  0  0  0  0  0
  -15.1475  -27.0179   31.4695 H   0  0  0  0  0  0  0  0  0  0  0  0
  -16.8306  -25.1376   30.1124 H   0  0  0  0  0  0  0  0  0  0  0  0
  -16.8540  -25.6175   31.7635 H   0  0  0  0  0  0  0  0  0  0  0  0
  -14.0831  -22.4064   30.9747 H   0  0  0  0  0  0  0  0  0  0  0  0
  -14.8950  -23.0497   29.7327 H   0  0  0  0  0  0  0  0  0  0  0  0
  -16.7522  -21.5585   30.6140 H   0  0  0  0  0  0  0  0  0  0  0  0
  -15.7680  -21.2109   31.9044 H   0  0  0  0  0  0  0  0  0  0  0  0
  -17.8080  -22.1755   32.8154 H   0  0  0  0  0  0  0  0  0  0  0  0
  -17.7934  -23.4585   31.6764 H   0  0  0  0  0  0  0  0  0  0  0  0
  -17.0140  -24.6435   33.4577 H   0  0  0  0  0  0  0  0  0  0  0  0
  -16.3531  -23.3449   34.2861 H   0  0  0  0  0  0  0  0  0  0  0  0
  -14.8065  -25.1509   33.2858 H   0  0  0  0  0  0  0  0  0  0  0  0
  -13.6095  -23.6549   34.2854 H   0  0  0  0  0  0  0  0  0  0  0  0
  -11.9588  -23.3907   32.9330 H   0  0  0  0  0  0  0  0  0  0  0  0
  -14.0424  -21.1693   32.6811 H   0  0  0  0  0  0  0  0  0  0  0  0
  -12.9734  -21.4710   33.9708 H   0  0  0  0  0  0  0  0  0  0  0  0
  -13.4152  -19.6022   35.3255 H   0  0  0  0  0  0  0  0  0  0  0  0
  -14.6707  -18.9227   34.2379 H   0  0  0  0  0  0  0  0  0  0  0  0
  -15.0166  -19.1549   35.9603 H   0  0  0  0  0  0  0  0  0  0  0  0
  -13.3672  -25.5379   31.4059 H   0  0  0  0  0  0  0  0  0  0  0  0
  1  2  1  0
  2  3  1  0
  3  4  1  0
  4  5  2  0
  4  6  1  0
  6  7  1  0
  7  8  1  0
  8  9  1  0
  9 10  1  0
 10 11  1  0
 11 12  1  0
 12 13  1  0
 13 14  1  0
 14 15  1  0
 15 16  1  0
 16 17  1  0
 17 18  1  0
 17 19  1  0
 19 20  1  0
 20 21  1  0
 20 22  2  0
 20 23  2  0
 11 24  1  0
 24  8  1  0
 16 11  1  0
  1 25  1  0
  1 26  1  0
  1 27  1  0
  2 28  1  0
  2 29  1  0
  3 30  1  0
  3 31  1  0
  6 32  1  0
  7 33  1  0
  7 34  1  0
  8 35  1  0
  9 36  1  0
 10 37  1  0
 10 38  1  0
 12 39  1  0
 12 40  1  0
 13 41  1  0
 13 42  1  0
 14 43  1  0
 14 44  1  0
 15 45  1  0
 15 46  1  0
 16 47  1  0
 17 48  1  0
 18 49  1  0
 19 50  1  0
 19 51  1  0
 21 52  1  0
 21 53  1  0
 21 54  1  0
 24 55  1  0
M  END
>  <Energy>  (300) 
98.408705350640247

>  <compound_id>  (300) 
3325

>  <target_id>  (300) 
1

>  <reference_id>  (300) 
173

>  <inspiration_ids>  (300) 
[110, 173]

>  <energy_score>  (300) 
3.742168580454745

>  <distance_score>  (300) 
3.613384347916699

>  <path>  (300) 
/opt/xchem-fragalysis-2/maxwin/BulkDock/SCRATCH/505734/C3325-P173/C3325-P173.minimised.mol

>  <scratch_subdir>  (300) 
/opt/xchem-fragalysis-2/maxwin/BulkDock/SCRATCH/505734/C3325-P173

>  <fragmenstein_runtime>  (300) 
11.863903999328613

>  <fragmenstein_outcome>  (300) 
too moved

>  <fragmenstein_mode>  (300) 
expansion

>  <fragmenstein_error>  (300) 


$$$$
C3326-P111
     RDKit          3D

 41 42  0  0  0  0  0  0  0  0999 V2000
   13.9024    1.4794   11.4844 C   0  0  0  0  0  0  0  0  0  0  0  0
   15.0502    1.7151   12.8181 S   0  0  0  0  0  0  0  0  0  0  0  0
   16.3827    1.6601   12.2500 O   0  0  0  0  0  0  0  0  0  0  0  0
   14.6155    2.8707   13.5824 O   0  0  0  0  0  0  0  0  0  0  0  0
   14.8368    0.2771   13.8428 C   0  0  0  0  0  0  0  0  0  0  0  0
   13.5267    0.3435   14.6162 C   0  0  0  0  0  0  0  0  0  0  0  0
   13.5861    1.3321   15.6481 O   0  0  0  0  0  0  0  0  0  0  0  0
   13.2431   -0.9803   15.2914 C   0  0  0  0  0  0  0  0  0  0  0  0
   12.2288   -1.8247   14.8267 C   0  0  0  0  0  0  0  0  0  0  0  0
   11.9741   -3.0339   15.4739 C   0  0  0  0  0  0  0  0  0  0  0  0
   12.7330   -3.4203   16.5829 C   0  0  0  0  0  0  0  0  0  0  0  0
   13.7268   -2.5780   17.0704 C   0  0  0  0  0  0  0  0  0  0  0  0
   14.4336   -2.8457   18.2392 N   0  0  0  0  0  0  0  0  0  0  0  0
   14.3369   -4.0462   19.2269 C   0  0  0  0  0  0  0  0  0  0  0  0
   13.7037   -5.0283   19.1664 O   0  0  0  0  0  0  0  0  0  0  0  0
   15.3114   -3.7146   20.3800 C   0  0  0  0  0  0  0  0  0  0  0  0
   14.7919   -4.3427   21.6801 C   0  0  0  0  0  0  0  0  0  0  0  0
   15.6806   -4.1129   22.7835 O   0  0  0  0  0  0  0  0  0  0  0  0
   16.2872   -2.8143   22.7506 C   0  0  0  0  0  0  0  0  0  0  0  0
   15.5492   -1.8338   21.8415 C   0  0  0  0  0  0  0  0  0  0  0  0
   15.5408   -2.2937   20.4822 O   0  0  0  0  0  0  0  0  0  0  0  0
   13.9883   -1.3746   16.4159 C   0  0  0  0  0  0  0  0  0  0  0  0
   14.0272    2.3042   10.7795 H   0  0  0  0  0  0  0  0  0  0  0  0
   12.8832    1.4766   11.8713 H   0  0  0  0  0  0  0  0  0  0  0  0
   14.1382    0.5339   10.9949 H   0  0  0  0  0  0  0  0  0  0  0  0
   14.8957   -0.5980   13.1872 H   0  0  0  0  0  0  0  0  0  0  0  0
   15.6979    0.2642   14.5209 H   0  0  0  0  0  0  0  0  0  0  0  0
   12.6846    0.6086   13.9688 H   0  0  0  0  0  0  0  0  0  0  0  0
   13.7983    2.1934   15.2289 H   0  0  0  0  0  0  0  0  0  0  0  0
   11.6148   -1.5483   13.9716 H   0  0  0  0  0  0  0  0  0  0  0  0
   11.1754   -3.6787   15.1145 H   0  0  0  0  0  0  0  0  0  0  0  0
   12.5060   -4.3637   17.0711 H   0  0  0  0  0  0  0  0  0  0  0  0
   15.0215   -2.1170   18.6447 H   0  0  0  0  0  0  0  0  0  0  0  0
   16.2789   -4.1617   20.1214 H   0  0  0  0  0  0  0  0  0  0  0  0
   13.8092   -3.9361   21.9492 H   0  0  0  0  0  0  0  0  0  0  0  0
   14.6726   -5.4266   21.5777 H   0  0  0  0  0  0  0  0  0  0  0  0
   17.3151   -2.9520   22.3976 H   0  0  0  0  0  0  0  0  0  0  0  0
   16.3284   -2.4371   23.7767 H   0  0  0  0  0  0  0  0  0  0  0  0
   14.5123   -1.6969   22.1647 H   0  0  0  0  0  0  0  0  0  0  0  0
   16.0375   -0.8548   21.8570 H   0  0  0  0  0  0  0  0  0  0  0  0
   14.7557   -0.7056   16.8019 H   0  0  0  0  0  0  0  0  0  0  0  0
  1  2  1  0
  2  3  2  0
  2  4  2  0
  2  5  1  0
  5  6  1  0
  6  7  1  0
  6  8  1  0
  8  9  2  0
  9 10  1  0
 10 11  2  0
 11 12  1  0
 12 13  1  0
 13 14  1  0
 14 15  2  0
 14 16  1  0
 16 17  1  0
 17 18  1  0
 18 19  1  0
 19 20  1  0
 20 21  1  0
 12 22  2  0
 22  8  1  0
 21 16  1  0
  1 23  1  0
  1 24  1  0
  1 25  1  0
  5 26  1  0
  5 27  1  0
  6 28  1  0
  7 29  1  0
  9 30  1  0
 10 31  1  0
 11 32  1  0
 13 33  1  0
 16 34  1  0
 17 35  1  0
 17 36  1  0
 19 37  1  0
 19 38  1  0
 20 39  1  0
 20 40  1  0
 22 41  1  0
M  END
>  <Energy>  (301) 
92.326427334947823

>  <compound_id>  (301) 
3326

>  <target_id>  (301) 
1

>  <reference_id>  (301) 
111

>  <inspiration_ids>  (301) 
[111, 4]

>  <energy_score>  (301) 
-60.72793364390637

>  <distance_score>  (301) 
0.48234552220397325

>  <path>  (301) 
/opt/xchem-fragalysis-2/maxwin/BulkDock/SCRATCH/505734/C3326-P111/C3326-P111.minimised.mol

>  <scratch_subdir>  (301) 
/opt/xchem-fragalysis-2/maxwin/BulkDock/SCRATCH/505734/C3326-P111

>  <fragmenstein_runtime>  (301) 
20.496726989746094

>  <fragmenstein_outcome>  (301) 
acceptable

>  <fragmenstein_mode>  (301) 
expansion

>  <fragmenstein_error>  (301) 


$$$$
C3326-P4
     RDKit          3D

 41 42  0  0  0  0  0  0  0  0999 V2000
   14.1264    1.4647   11.3918 C   0  0  0  0  0  0  0  0  0  0  0  0
   15.3155    1.6356   12.6950 S   0  0  0  0  0  0  0  0  0  0  0  0
   16.6239    1.6864   12.0747 O   0  0  0  0  0  0  0  0  0  0  0  0
   14.8618    2.7109   13.5599 O   0  0  0  0  0  0  0  0  0  0  0  0
   15.2002    0.1006   13.6005 C   0  0  0  0  0  0  0  0  0  0  0  0
   13.9577    0.0948   14.4690 C   0  0  0  0  0  0  0  0  0  0  0  0
   14.1029    1.0372   15.5396 O   0  0  0  0  0  0  0  0  0  0  0  0
   13.6998   -1.2467   15.1252 C   0  0  0  0  0  0  0  0  0  0  0  0
   12.5651   -2.0004   14.7954 C   0  0  0  0  0  0  0  0  0  0  0  0
   12.2059   -3.0992   15.5779 C   0  0  0  0  0  0  0  0  0  0  0  0
   12.9637   -3.4500   16.7024 C   0  0  0  0  0  0  0  0  0  0  0  0
   14.0997   -2.7170   17.0346 C   0  0  0  0  0  0  0  0  0  0  0  0
   14.7829   -2.8790   18.2403 N   0  0  0  0  0  0  0  0  0  0  0  0
   14.4747   -3.8004   19.4656 C   0  0  0  0  0  0  0  0  0  0  0  0
   13.6461   -4.6158   19.6125 O   0  0  0  0  0  0  0  0  0  0  0  0
   15.5796   -3.4952   20.5009 C   0  0  0  0  0  0  0  0  0  0  0  0
   15.1051   -3.8964   21.9042 C   0  0  0  0  0  0  0  0  0  0  0  0
   16.1028   -3.6344   22.9019 O   0  0  0  0  0  0  0  0  0  0  0  0
   16.7869   -2.3920   22.6959 C   0  0  0  0  0  0  0  0  0  0  0  0
   16.0975   -1.4829   21.6800 C   0  0  0  0  0  0  0  0  0  0  0  0
   16.0120   -2.1232   20.4002 O   0  0  0  0  0  0  0  0  0  0  0  0
   14.4992   -1.6625   16.2087 C   0  0  0  0  0  0  0  0  0  0  0  0
   14.1618    2.3670   10.7776 H   0  0  0  0  0  0  0  0  0  0  0  0
   13.1292    1.3445   11.8151 H   0  0  0  0  0  0  0  0  0  0  0  0
   14.4096    0.5982   10.7942 H   0  0  0  0  0  0  0  0  0  0  0  0
   15.2116   -0.7148   12.8706 H   0  0  0  0  0  0  0  0  0  0  0  0
   16.1115    0.0416   14.2063 H   0  0  0  0  0  0  0  0  0  0  0  0
   13.0729    0.3900   13.8959 H   0  0  0  0  0  0  0  0  0  0  0  0
   14.1853    1.9326   15.1461 H   0  0  0  0  0  0  0  0  0  0  0  0
   11.9156   -1.7124   13.9711 H   0  0  0  0  0  0  0  0  0  0  0  0
   11.3142   -3.6712   15.3298 H   0  0  0  0  0  0  0  0  0  0  0  0
   12.6300   -4.2790   17.3208 H   0  0  0  0  0  0  0  0  0  0  0  0
   15.6293   -2.3419   18.4222 H   0  0  0  0  0  0  0  0  0  0  0  0
   16.4496   -4.1061   20.2302 H   0  0  0  0  0  0  0  0  0  0  0  0
   14.1953   -3.3559   22.1883 H   0  0  0  0  0  0  0  0  0  0  0  0
   14.8682   -4.9648   21.9488 H   0  0  0  0  0  0  0  0  0  0  0  0
   17.7955   -2.6415   22.3485 H   0  0  0  0  0  0  0  0  0  0  0  0
   16.8768   -1.8923   23.6651 H   0  0  0  0  0  0  0  0  0  0  0  0
   15.0848   -1.2149   22.0017 H   0  0  0  0  0  0  0  0  0  0  0  0
   16.6639   -0.5557   21.5511 H   0  0  0  0  0  0  0  0  0  0  0  0
   15.3544   -1.0518   16.4948 H   0  0  0  0  0  0  0  0  0  0  0  0
  1  2  1  0
  2  3  2  0
  2  4  2  0
  2  5  1  0
  5  6  1  0
  6  7  1  0
  6  8  1  0
  8  9  2  0
  9 10  1  0
 10 11  2  0
 11 12  1  0
 12 13  1  0
 13 14  1  0
 14 15  2  0
 14 16  1  0
 16 17  1  0
 17 18  1  0
 18 19  1  0
 19 20  1  0
 20 21  1  0
 12 22  2  0
 22  8  1  0
 21 16  1  0
  1 23  1  0
  1 24  1  0
  1 25  1  0
  5 26  1  0
  5 27  1  0
  6 28  1  0
  7 29  1  0
  9 30  1  0
 10 31  1  0
 11 32  1  0
 13 33  1  0
 16 34  1  0
 17 35  1  0
 17 36  1  0
 19 37  1  0
 19 38  1  0
 20 39  1  0
 20 40  1  0
 22 41  1  0
M  END
>  <Energy>  (302) 
96.684184112765351

>  <compound_id>  (302) 
3326

>  <target_id>  (302) 
1

>  <reference_id>  (302) 
4

>  <inspiration_ids>  (302) 
[111, 4]

>  <energy_score>  (302) 
-56.37017686608897

>  <distance_score>  (302) 
0.5249162548777879

>  <path>  (302) 
/opt/xchem-fragalysis-2/maxwin/BulkDock/SCRATCH/505734/C3326-P4/C3326-P4.minimised.mol

>  <scratch_subdir>  (302) 
/opt/xchem-fragalysis-2/maxwin/BulkDock/SCRATCH/505734/C3326-P4

>  <fragmenstein_runtime>  (302) 
20.885167598724365

>  <fragmenstein_outcome>  (302) 
acceptable

>  <fragmenstein_mode>  (302) 
expansion

>  <fragmenstein_error>  (302) 


$$$$
C3327-P111
     RDKit          3D

 27 27  0  0  0  0  0  0  0  0999 V2000
   16.5636    1.3657   12.4226 C   0  0  0  0  0  0  0  0  0  0  0  0
   14.8863    1.9341   12.5435 S   0  0  0  0  0  0  0  0  0  0  0  0
   14.8386    3.0036   13.5241 O   0  0  0  0  0  0  0  0  0  0  0  0
   14.3931    2.1380   11.1950 O   0  0  0  0  0  0  0  0  0  0  0  0
   13.9975    0.5563   13.1988 C   0  0  0  0  0  0  0  0  0  0  0  0
   14.1165    0.4612   14.7076 C   0  0  0  0  0  0  0  0  0  0  0  0
   13.3978    1.4992   15.3681 O   0  0  0  0  0  0  0  0  0  0  0  0
   13.5481   -0.8352   15.2297 C   0  0  0  0  0  0  0  0  0  0  0  0
   14.1762   -1.4722   16.3066 C   0  0  0  0  0  0  0  0  0  0  0  0
   13.6631   -2.6621   16.8113 C   0  0  0  0  0  0  0  0  0  0  0  0
   12.5107   -3.2198   16.2609 C   0  0  0  0  0  0  0  0  0  0  0  0
   12.0482   -4.4406   16.7290 N   0  0  0  0  0  0  0  0  0  0  0  0
   11.8969   -2.6121   15.1736 C   0  0  0  0  0  0  0  0  0  0  0  0
   12.3887   -1.4094   14.6838 C   0  0  0  0  0  0  0  0  0  0  0  0
   16.9309    1.1208   13.4203 H   0  0  0  0  0  0  0  0  0  0  0  0
   16.5939    0.4899   11.7720 H   0  0  0  0  0  0  0  0  0  0  0  0
   17.1639    2.1702   11.9926 H   0  0  0  0  0  0  0  0  0  0  0  0
   12.9578    0.7328   12.8982 H   0  0  0  0  0  0  0  0  0  0  0  0
   14.3592   -0.3398   12.6836 H   0  0  0  0  0  0  0  0  0  0  0  0
   15.1681    0.5428   15.0065 H   0  0  0  0  0  0  0  0  0  0  0  0
   13.7727    2.3542   15.0680 H   0  0  0  0  0  0  0  0  0  0  0  0
   15.0648   -1.0443   16.7643 H   0  0  0  0  0  0  0  0  0  0  0  0
   14.1668   -3.1555   17.6378 H   0  0  0  0  0  0  0  0  0  0  0  0
   11.1587   -4.7507   16.3380 H   0  0  0  0  0  0  0  0  0  0  0  0
   12.0445   -4.4838   17.7478 H   0  0  0  0  0  0  0  0  0  0  0  0
   11.0155   -3.0493   14.7114 H   0  0  0  0  0  0  0  0  0  0  0  0
   11.8408   -0.9345   13.8731 H   0  0  0  0  0  0  0  0  0  0  0  0
  1  2  1  0
  2  3  2  0
  2  4  2  0
  2  5  1  0
  5  6  1  0
  6  7  1  0
  6  8  1  0
  8  9  2  0
  9 10  1  0
 10 11  2  0
 11 12  1  0
 11 13  1  0
 13 14  2  0
 14  8  1  0
  1 15  1  0
  1 16  1  0
  1 17  1  0
  5 18  1  0
  5 19  1  0
  6 20  1  0
  7 21  1  0
  9 22  1  0
 10 23  1  0
 12 24  1  0
 12 25  1  0
 13 26  1  0
 14 27  1  0
M  END
>  <Energy>  (303) 
6.0283151198469893

>  <compound_id>  (303) 
3327

>  <target_id>  (303) 
1

>  <reference_id>  (303) 
111

>  <inspiration_ids>  (303) 
[111, 6]

>  <energy_score>  (303) 
-42.55672022620618

>  <distance_score>  (303) 
0.6892492678263864

>  <path>  (303) 
/opt/xchem-fragalysis-2/maxwin/BulkDock/SCRATCH/505734/C3327-P111/C3327-P111.minimised.mol

>  <scratch_subdir>  (303) 
/opt/xchem-fragalysis-2/maxwin/BulkDock/SCRATCH/505734/C3327-P111

>  <fragmenstein_runtime>  (303) 
28.38604164123535

>  <fragmenstein_outcome>  (303) 
acceptable

>  <fragmenstein_mode>  (303) 
expansion

>  <fragmenstein_error>  (303) 


$$$$
C3327-P6
     RDKit          3D

 27 27  0  0  0  0  0  0  0  0999 V2000
   16.5654    1.3270   12.4386 C   0  0  0  0  0  0  0  0  0  0  0  0
   14.8962    1.9181   12.5573 S   0  0  0  0  0  0  0  0  0  0  0  0
   14.8624    2.9858   13.5405 O   0  0  0  0  0  0  0  0  0  0  0  0
   14.4109    2.1342   11.2077 O   0  0  0  0  0  0  0  0  0  0  0  0
   13.9862    0.5505   13.2049 C   0  0  0  0  0  0  0  0  0  0  0  0
   14.1024    0.4399   14.7132 C   0  0  0  0  0  0  0  0  0  0  0  0
   13.4110    1.4915   15.3802 O   0  0  0  0  0  0  0  0  0  0  0  0
   13.5004   -0.8458   15.2262 C   0  0  0  0  0  0  0  0  0  0  0  0
   14.0991   -1.5005   16.3095 C   0  0  0  0  0  0  0  0  0  0  0  0
   13.5561   -2.6844   16.8003 C   0  0  0  0  0  0  0  0  0  0  0  0
   12.4011   -3.2183   16.2313 C   0  0  0  0  0  0  0  0  0  0  0  0
   11.9206   -4.4462   16.6631 N   0  0  0  0  0  0  0  0  0  0  0  0
   11.8151   -2.5900   15.1404 C   0  0  0  0  0  0  0  0  0  0  0  0
   12.3367   -1.3943   14.6641 C   0  0  0  0  0  0  0  0  0  0  0  0
   16.5851    0.4525   11.7858 H   0  0  0  0  0  0  0  0  0  0  0  0
   17.1779    2.1241   12.0120 H   0  0  0  0  0  0  0  0  0  0  0  0
   16.9272    1.0744   13.4363 H   0  0  0  0  0  0  0  0  0  0  0  0
   12.9496    0.7469   12.9051 H   0  0  0  0  0  0  0  0  0  0  0  0
   14.3324   -0.3479   12.6828 H   0  0  0  0  0  0  0  0  0  0  0  0
   15.1559    0.4917   15.0123 H   0  0  0  0  0  0  0  0  0  0  0  0
   13.8027    2.3400   15.0848 H   0  0  0  0  0  0  0  0  0  0  0  0
   14.9888   -1.0916   16.7820 H   0  0  0  0  0  0  0  0  0  0  0  0
   14.0396   -3.1924   17.6295 H   0  0  0  0  0  0  0  0  0  0  0  0
   11.0234   -4.7257   16.2718 H   0  0  0  0  0  0  0  0  0  0  0  0
   11.9429   -4.5372   17.6768 H   0  0  0  0  0  0  0  0  0  0  0  0
   10.9341   -3.0082   14.6600 H   0  0  0  0  0  0  0  0  0  0  0  0
   11.8079   -0.9068   13.8482 H   0  0  0  0  0  0  0  0  0  0  0  0
  1  2  1  0
  2  3  2  0
  2  4  2  0
  2  5  1  0
  5  6  1  0
  6  7  1  0
  6  8  1  0
  8  9  2  0
  9 10  1  0
 10 11  2  0
 11 12  1  0
 11 13  1  0
 13 14  2  0
 14  8  1  0
  1 15  1  0
  1 16  1  0
  1 17  1  0
  5 18  1  0
  5 19  1  0
  6 20  1  0
  7 21  1  0
  9 22  1  0
 10 23  1  0
 12 24  1  0
 12 25  1  0
 13 26  1  0
 14 27  1  0
M  END
>  <Energy>  (304) 
5.8330347811774601

>  <compound_id>  (304) 
3327

>  <target_id>  (304) 
1

>  <reference_id>  (304) 
6

>  <inspiration_ids>  (304) 
[111, 6]

>  <energy_score>  (304) 
-42.75200056487469

>  <distance_score>  (304) 
0.6738682487512219

>  <path>  (304) 
/opt/xchem-fragalysis-2/maxwin/BulkDock/SCRATCH/505734/C3327-P6/C3327-P6.minimised.mol

>  <scratch_subdir>  (304) 
/opt/xchem-fragalysis-2/maxwin/BulkDock/SCRATCH/505734/C3327-P6

>  <fragmenstein_runtime>  (304) 
28.85652995109558

>  <fragmenstein_outcome>  (304) 
acceptable

>  <fragmenstein_mode>  (304) 
expansion

>  <fragmenstein_error>  (304) 


$$$$
C3328-P111
     RDKit          3D

 28 28  0  0  0  0  0  0  0  0999 V2000
   16.5634    1.4391   12.6511 C   0  0  0  0  0  0  0  0  0  0  0  0
   14.8106    1.7162   12.6894 S   0  0  0  0  0  0  0  0  0  0  0  0
   14.5414    2.7929   13.6267 O   0  0  0  0  0  0  0  0  0  0  0  0
   14.3495    1.8091   11.3164 O   0  0  0  0  0  0  0  0  0  0  0  0
   14.1428    0.2152   13.3566 C   0  0  0  0  0  0  0  0  0  0  0  0
   14.0221    0.2635   14.8691 C   0  0  0  0  0  0  0  0  0  0  0  0
   13.0138    1.1883   15.2897 O   0  0  0  0  0  0  0  0  0  0  0  0
   13.6146   -1.1001   15.3963 C   0  0  0  0  0  0  0  0  0  0  0  0
   12.3089   -1.5723   15.1419 C   0  0  0  0  0  0  0  0  0  0  0  0
   11.8857   -2.8114   15.6169 C   0  0  0  0  0  0  0  0  0  0  0  0
   12.7391   -3.5846   16.3953 C   0  0  0  0  0  0  0  0  0  0  0  0
   14.0407   -3.1509   16.6420 C   0  0  0  0  0  0  0  0  0  0  0  0
   14.4955   -1.9295   16.1195 C   0  0  0  0  0  0  0  0  0  0  0  0
   15.9324   -1.5857   16.2621 C   0  0  0  0  0  0  0  0  0  0  0  0
   16.5952   -0.9519   15.4603 O   0  0  0  0  0  0  0  0  0  0  0  0
   16.4584   -2.0564   17.4051 O   0  0  0  0  0  0  0  0  0  0  0  0
   16.9184    1.2819   13.6707 H   0  0  0  0  0  0  0  0  0  0  0  0
   17.0381    2.3248   12.2237 H   0  0  0  0  0  0  0  0  0  0  0  0
   16.7708    0.5673   12.0281 H   0  0  0  0  0  0  0  0  0  0  0  0
   13.1544    0.1094   12.8942 H   0  0  0  0  0  0  0  0  0  0  0  0
   14.7702   -0.6104   13.0053 H   0  0  0  0  0  0  0  0  0  0  0  0
   14.9406    0.6227   15.3357 H   0  0  0  0  0  0  0  0  0  0  0  0
   13.3138    2.0803   15.0103 H   0  0  0  0  0  0  0  0  0  0  0  0
   11.6084   -0.9699   14.5617 H   0  0  0  0  0  0  0  0  0  0  0  0
   10.8897   -3.1714   15.3716 H   0  0  0  0  0  0  0  0  0  0  0  0
   12.4024   -4.5453   16.7768 H   0  0  0  0  0  0  0  0  0  0  0  0
   14.7096   -3.7911   17.2121 H   0  0  0  0  0  0  0  0  0  0  0  0
   17.3945   -1.7672   17.3954 H   0  0  0  0  0  0  0  0  0  0  0  0
  1  2  1  0
  2  3  2  0
  2  4  2  0
  2  5  1  0
  5  6  1  0
  6  7  1  0
  6  8  1  0
  8  9  2  0
  9 10  1  0
 10 11  2  0
 11 12  1  0
 12 13  2  0
 13 14  1  0
 14 15  2  0
 14 16  1  0
 13  8  1  0
  1 17  1  0
  1 18  1  0
  1 19  1  0
  5 20  1  0
  5 21  1  0
  6 22  1  0
  7 23  1  0
  9 24  1  0
 10 25  1  0
 11 26  1  0
 12 27  1  0
 16 28  1  0
M  END
>  <Energy>  (305) 
1.3766548229724327

>  <compound_id>  (305) 
3328

>  <target_id>  (305) 
1

>  <reference_id>  (305) 
111

>  <inspiration_ids>  (305) 
[111, 8]

>  <energy_score>  (305) 
-35.04384054859449

>  <distance_score>  (305) 
1.0356559985776135

>  <path>  (305) 
/opt/xchem-fragalysis-2/maxwin/BulkDock/SCRATCH/505734/C3328-P111/C3328-P111.minimised.mol

>  <scratch_subdir>  (305) 
/opt/xchem-fragalysis-2/maxwin/BulkDock/SCRATCH/505734/C3328-P111

>  <fragmenstein_runtime>  (305) 
42.810364723205566

>  <fragmenstein_outcome>  (305) 
too moved

>  <fragmenstein_mode>  (305) 
expansion

>  <fragmenstein_error>  (305) 


$$$$
C3328-P8
     RDKit          3D

 28 28  0  0  0  0  0  0  0  0999 V2000
   16.5719    1.4409   12.6497 C   0  0  0  0  0  0  0  0  0  0  0  0
   14.8203    1.7231   12.6957 S   0  0  0  0  0  0  0  0  0  0  0  0
   14.5586    2.7954   13.6403 O   0  0  0  0  0  0  0  0  0  0  0  0
   14.3560    1.8277   11.3248 O   0  0  0  0  0  0  0  0  0  0  0  0
   14.1519    0.2182   13.3553 C   0  0  0  0  0  0  0  0  0  0  0  0
   14.0248    0.2624   14.8674 C   0  0  0  0  0  0  0  0  0  0  0  0
   13.0126    1.1838   15.2828 O   0  0  0  0  0  0  0  0  0  0  0  0
   13.6165   -1.1017   15.3926 C   0  0  0  0  0  0  0  0  0  0  0  0
   12.3161   -1.5793   15.1222 C   0  0  0  0  0  0  0  0  0  0  0  0
   11.8912   -2.8189   15.5938 C   0  0  0  0  0  0  0  0  0  0  0  0
   12.7358   -3.5872   16.3865 C   0  0  0  0  0  0  0  0  0  0  0  0
   14.0318   -3.1473   16.6515 C   0  0  0  0  0  0  0  0  0  0  0  0
   14.4893   -1.9253   16.1321 C   0  0  0  0  0  0  0  0  0  0  0  0
   15.9222   -1.5749   16.2966 C   0  0  0  0  0  0  0  0  0  0  0  0
   16.5974   -0.9451   15.5021 O   0  0  0  0  0  0  0  0  0  0  0  0
   16.4299   -2.0349   17.4524 O   0  0  0  0  0  0  0  0  0  0  0  0
   16.7749    0.5746   12.0178 H   0  0  0  0  0  0  0  0  0  0  0  0
   16.9293    1.2725   13.6668 H   0  0  0  0  0  0  0  0  0  0  0  0
   17.0484    2.3291   12.2296 H   0  0  0  0  0  0  0  0  0  0  0  0
   13.1660    0.1118   12.8875 H   0  0  0  0  0  0  0  0  0  0  0  0
   14.7825   -0.6053   13.0049 H   0  0  0  0  0  0  0  0  0  0  0  0
   14.9407    0.6228   15.3379 H   0  0  0  0  0  0  0  0  0  0  0  0
   13.3165    2.0791   15.0200 H   0  0  0  0  0  0  0  0  0  0  0  0
   11.6206   -0.9803   14.5324 H   0  0  0  0  0  0  0  0  0  0  0  0
   10.9009   -3.1833   15.3321 H   0  0  0  0  0  0  0  0  0  0  0  0
   12.3977   -4.5490   16.7628 H   0  0  0  0  0  0  0  0  0  0  0  0
   14.6954   -3.7840   17.2318 H   0  0  0  0  0  0  0  0  0  0  0  0
   17.3646   -1.7413   17.4554 H   0  0  0  0  0  0  0  0  0  0  0  0
  1  2  1  0
  2  3  2  0
  2  4  2  0
  2  5  1  0
  5  6  1  0
  6  7  1  0
  6  8  1  0
  8  9  2  0
  9 10  1  0
 10 11  2  0
 11 12  1  0
 12 13  2  0
 13 14  1  0
 14 15  2  0
 14 16  1  0
 13  8  1  0
  1 17  1  0
  1 18  1  0
  1 19  1  0
  5 20  1  0
  5 21  1  0
  6 22  1  0
  7 23  1  0
  9 24  1  0
 10 25  1  0
 11 26  1  0
 12 27  1  0
 16 28  1  0
M  END
>  <Energy>  (306) 
1.5193062950825533

>  <compound_id>  (306) 
3328

>  <target_id>  (306) 
1

>  <reference_id>  (306) 
8

>  <inspiration_ids>  (306) 
[111, 8]

>  <energy_score>  (306) 
-34.90118907648457

>  <distance_score>  (306) 
1.0308272327720451

>  <path>  (306) 
/opt/xchem-fragalysis-2/maxwin/BulkDock/SCRATCH/505734/C3328-P8/C3328-P8.minimised.mol

>  <scratch_subdir>  (306) 
/opt/xchem-fragalysis-2/maxwin/BulkDock/SCRATCH/505734/C3328-P8

>  <fragmenstein_runtime>  (306) 
43.04173970222473

>  <fragmenstein_outcome>  (306) 
too moved

>  <fragmenstein_mode>  (306) 
expansion

>  <fragmenstein_error>  (306) 


$$$$
C3329-P111
     RDKit          3D

 45 46  0  0  0  0  0  0  0  0999 V2000
   13.8017    1.8885   11.9516 C   0  0  0  0  0  0  0  0  0  0  0  0
   15.1886    1.5315   13.0077 S   0  0  0  0  0  0  0  0  0  0  0  0
   16.3371    1.3233   12.1463 O   0  0  0  0  0  0  0  0  0  0  0  0
   15.2247    2.5496   14.0437 O   0  0  0  0  0  0  0  0  0  0  0  0
   14.7453   -0.0329   13.7329 C   0  0  0  0  0  0  0  0  0  0  0  0
   14.2168    0.0770   15.1610 C   0  0  0  0  0  0  0  0  0  0  0  0
   13.3400    1.1948   15.3360 O   0  0  0  0  0  0  0  0  0  0  0  0
   13.4162   -1.1657   15.5126 C   0  0  0  0  0  0  0  0  0  0  0  0
   12.1294   -1.2961   14.9515 C   0  0  0  0  0  0  0  0  0  0  0  0
   11.3648   -2.4314   15.1704 C   0  0  0  0  0  0  0  0  0  0  0  0
   11.8574   -3.4365   15.9851 C   0  0  0  0  0  0  0  0  0  0  0  0
   13.1068   -3.3197   16.5797 C   0  0  0  0  0  0  0  0  0  0  0  0
   13.9139   -2.2133   16.3118 C   0  0  0  0  0  0  0  0  0  0  0  0
   15.1812   -2.0978   16.8115 O   0  0  0  0  0  0  0  0  0  0  0  0
   15.8887   -3.3194   17.0490 C   0  0  0  0  0  0  0  0  0  0  0  0
   17.3151   -3.1780   16.7619 N   0  0  0  0  0  0  0  0  0  0  0  0
   17.9222   -1.9762   17.3566 C   0  0  0  0  0  0  0  0  0  0  0  0
   19.3745   -1.8520   16.8688 C   0  0  0  0  0  0  0  0  0  0  0  0
   20.2656   -2.9783   17.3853 C   0  0  0  0  0  0  0  0  0  0  0  0
   20.0595   -3.3177   18.8482 C   0  0  0  0  0  0  0  0  0  0  0  0
   20.9144   -3.8969   19.5128 O   0  0  0  0  0  0  0  0  0  0  0  0
   18.8305   -3.0569   19.3924 N   0  0  0  0  0  0  0  0  0  0  0  0
   17.9722   -2.0008   18.8939 C   0  0  0  0  0  0  0  0  0  0  0  0
   13.7217    1.1050   11.1965 H   0  0  0  0  0  0  0  0  0  0  0  0
   13.9805    2.8524   11.4706 H   0  0  0  0  0  0  0  0  0  0  0  0
   12.8962    1.9366   12.5588 H   0  0  0  0  0  0  0  0  0  0  0  0
   14.0192   -0.4861   13.0486 H   0  0  0  0  0  0  0  0  0  0  0  0
   15.6330   -0.6752   13.7104 H   0  0  0  0  0  0  0  0  0  0  0  0
   15.0442    0.2169   15.8654 H   0  0  0  0  0  0  0  0  0  0  0  0
   13.9119    1.9923   15.3620 H   0  0  0  0  0  0  0  0  0  0  0  0
   11.7151   -0.5098   14.3208 H   0  0  0  0  0  0  0  0  0  0  0  0
   10.3857   -2.5262   14.7100 H   0  0  0  0  0  0  0  0  0  0  0  0
   11.2730   -4.3284   16.1695 H   0  0  0  0  0  0  0  0  0  0  0  0
   13.4259   -4.1180   17.2409 H   0  0  0  0  0  0  0  0  0  0  0  0
   15.7272   -3.6255   18.0887 H   0  0  0  0  0  0  0  0  0  0  0  0
   15.5357   -4.1232   16.3929 H   0  0  0  0  0  0  0  0  0  0  0  0
   17.7849   -4.0076   17.1247 H   0  0  0  0  0  0  0  0  0  0  0  0
   17.3856   -1.0808   17.0218 H   0  0  0  0  0  0  0  0  0  0  0  0
   19.7813   -0.8927   17.2158 H   0  0  0  0  0  0  0  0  0  0  0  0
   19.4136   -1.8235   15.7728 H   0  0  0  0  0  0  0  0  0  0  0  0
   21.3150   -2.6962   17.2437 H   0  0  0  0  0  0  0  0  0  0  0  0
   20.0909   -3.8949   16.8102 H   0  0  0  0  0  0  0  0  0  0  0  0
   18.7955   -3.2678   20.3836 H   0  0  0  0  0  0  0  0  0  0  0  0
   16.9818   -2.1336   19.3392 H   0  0  0  0  0  0  0  0  0  0  0  0
   18.3772   -1.0539   19.2707 H   0  0  0  0  0  0  0  0  0  0  0  0
  1  2  1  0
  2  3  2  0
  2  4  2  0
  2  5  1  0
  5  6  1  0
  6  7  1  0
  6  8  1  0
  8  9  2  0
  9 10  1  0
 10 11  2  0
 11 12  1  0
 12 13  2  0
 13 14  1  0
 14 15  1  0
 15 16  1  0
 16 17  1  0
 17 18  1  0
 18 19  1  0
 19 20  1  0
 20 21  2  0
 20 22  1  0
 22 23  1  0
 13  8  1  0
 23 17  1  0
  1 24  1  0
  1 25  1  0
  1 26  1  0
  5 27  1  0
  5 28  1  0
  6 29  1  0
  7 30  1  0
  9 31  1  0
 10 32  1  0
 11 33  1  0
 12 34  1  0
 15 35  1  0
 15 36  1  0
 16 37  1  0
 17 38  1  0
 18 39  1  0
 18 40  1  0
 19 41  1  0
 19 42  1  0
 22 43  1  0
 23 44  1  0
 23 45  1  0
M  END
>  <Energy>  (307) 
-1.9393798704263858

>  <compound_id>  (307) 
3329

>  <target_id>  (307) 
1

>  <reference_id>  (307) 
111

>  <inspiration_ids>  (307) 
[111, 10]

>  <energy_score>  (307) 
-54.30247413588384

>  <distance_score>  (307) 
0.7854751470240289

>  <path>  (307) 
/opt/xchem-fragalysis-2/maxwin/BulkDock/SCRATCH/505734/C3329-P111/C3329-P111.minimised.mol

>  <scratch_subdir>  (307) 
/opt/xchem-fragalysis-2/maxwin/BulkDock/SCRATCH/505734/C3329-P111

>  <fragmenstein_runtime>  (307) 
42.124338150024414

>  <fragmenstein_outcome>  (307) 
acceptable

>  <fragmenstein_mode>  (307) 
expansion

>  <fragmenstein_error>  (307) 


$$$$
C3329-P10
     RDKit          3D

 45 46  0  0  0  0  0  0  0  0999 V2000
   13.8282    1.8929   11.9433 C   0  0  0  0  0  0  0  0  0  0  0  0
   15.2054    1.5375   13.0127 S   0  0  0  0  0  0  0  0  0  0  0  0
   16.3638    1.3340   12.1637 O   0  0  0  0  0  0  0  0  0  0  0  0
   15.2277    2.5537   14.0510 O   0  0  0  0  0  0  0  0  0  0  0  0
   14.7592   -0.0297   13.7299 C   0  0  0  0  0  0  0  0  0  0  0  0
   14.2365    0.0725   15.1607 C   0  0  0  0  0  0  0  0  0  0  0  0
   13.3575    1.1876   15.3438 O   0  0  0  0  0  0  0  0  0  0  0  0
   13.4383   -1.1727   15.5081 C   0  0  0  0  0  0  0  0  0  0  0  0
   12.1534   -1.3026   14.9430 C   0  0  0  0  0  0  0  0  0  0  0  0
   11.3889   -2.4376   15.1593 C   0  0  0  0  0  0  0  0  0  0  0  0
   11.8788   -3.4419   15.9759 C   0  0  0  0  0  0  0  0  0  0  0  0
   13.1263   -3.3269   16.5747 C   0  0  0  0  0  0  0  0  0  0  0  0
   13.9342   -2.2210   16.3079 C   0  0  0  0  0  0  0  0  0  0  0  0
   15.2001   -2.1073   16.8106 O   0  0  0  0  0  0  0  0  0  0  0  0
   15.9052   -3.3305   17.0491 C   0  0  0  0  0  0  0  0  0  0  0  0
   17.3319   -3.1903   16.7601 N   0  0  0  0  0  0  0  0  0  0  0  0
   17.9417   -1.9946   17.3644 C   0  0  0  0  0  0  0  0  0  0  0  0
   19.3902   -1.8635   16.8671 C   0  0  0  0  0  0  0  0  0  0  0  0
   20.2850   -2.9970   17.3610 C   0  0  0  0  0  0  0  0  0  0  0  0
   20.0889   -3.3591   18.8198 C   0  0  0  0  0  0  0  0  0  0  0  0
   20.9467   -3.9532   19.4675 O   0  0  0  0  0  0  0  0  0  0  0  0
   18.8656   -3.1023   19.3782 N   0  0  0  0  0  0  0  0  0  0  0  0
   18.0041   -2.0388   18.9008 C   0  0  0  0  0  0  0  0  0  0  0  0
   13.7582    1.1108   11.1858 H   0  0  0  0  0  0  0  0  0  0  0  0
   14.0090    2.8584   11.4664 H   0  0  0  0  0  0  0  0  0  0  0  0
   12.9167    1.9368   12.5418 H   0  0  0  0  0  0  0  0  0  0  0  0
   14.0286   -0.4757   13.0456 H   0  0  0  0  0  0  0  0  0  0  0  0
   15.6442   -0.6755   13.6995 H   0  0  0  0  0  0  0  0  0  0  0  0
   15.0661    0.2102   15.8629 H   0  0  0  0  0  0  0  0  0  0  0  0
   13.9271    1.9869   15.3664 H   0  0  0  0  0  0  0  0  0  0  0  0
   11.7398   -0.5153   14.3132 H   0  0  0  0  0  0  0  0  0  0  0  0
   10.4098   -2.5317   14.6998 H   0  0  0  0  0  0  0  0  0  0  0  0
   11.2884   -4.3290   16.1646 H   0  0  0  0  0  0  0  0  0  0  0  0
   13.4415   -4.1236   17.2409 H   0  0  0  0  0  0  0  0  0  0  0  0
   15.7447   -3.6337   18.0897 H   0  0  0  0  0  0  0  0  0  0  0  0
   15.5501   -4.1368   16.3964 H   0  0  0  0  0  0  0  0  0  0  0  0
   17.7986   -4.0237   17.1178 H   0  0  0  0  0  0  0  0  0  0  0  0
   17.4021   -1.0953   17.0450 H   0  0  0  0  0  0  0  0  0  0  0  0
   19.7998   -0.9091   17.2243 H   0  0  0  0  0  0  0  0  0  0  0  0
   19.4207   -1.8198   15.7714 H   0  0  0  0  0  0  0  0  0  0  0  0
   21.3334   -2.7124   17.2167 H   0  0  0  0  0  0  0  0  0  0  0  0
   20.1065   -3.9047   16.7731 H   0  0  0  0  0  0  0  0  0  0  0  0
   18.8368   -3.3277   20.3664 H   0  0  0  0  0  0  0  0  0  0  0  0
   17.0172   -2.1768   19.3524 H   0  0  0  0  0  0  0  0  0  0  0  0
   18.4129   -1.0973   19.2867 H   0  0  0  0  0  0  0  0  0  0  0  0
  1  2  1  0
  2  3  2  0
  2  4  2  0
  2  5  1  0
  5  6  1  0
  6  7  1  0
  6  8  1  0
  8  9  2  0
  9 10  1  0
 10 11  2  0
 11 12  1  0
 12 13  2  0
 13 14  1  0
 14 15  1  0
 15 16  1  0
 16 17  1  0
 17 18  1  0
 18 19  1  0
 19 20  1  0
 20 21  2  0
 20 22  1  0
 22 23  1  0
 13  8  1  0
 23 17  1  0
  1 24  1  0
  1 25  1  0
  1 26  1  0
  5 27  1  0
  5 28  1  0
  6 29  1  0
  7 30  1  0
  9 31  1  0
 10 32  1  0
 11 33  1  0
 12 34  1  0
 15 35  1  0
 15 36  1  0
 16 37  1  0
 17 38  1  0
 18 39  1  0
 18 40  1  0
 19 41  1  0
 19 42  1  0
 22 43  1  0
 23 44  1  0
 23 45  1  0
M  END
>  <Energy>  (308) 
-1.8131549880404947

>  <compound_id>  (308) 
3329

>  <target_id>  (308) 
1

>  <reference_id>  (308) 
10

>  <inspiration_ids>  (308) 
[111, 10]

>  <energy_score>  (308) 
-54.176249253497105

>  <distance_score>  (308) 
0.7817318955338718

>  <path>  (308) 
/opt/xchem-fragalysis-2/maxwin/BulkDock/SCRATCH/505734/C3329-P10/C3329-P10.minimised.mol

>  <scratch_subdir>  (308) 
/opt/xchem-fragalysis-2/maxwin/BulkDock/SCRATCH/505734/C3329-P10

>  <fragmenstein_runtime>  (308) 
41.18623638153076

>  <fragmenstein_outcome>  (308) 
acceptable

>  <fragmenstein_mode>  (308) 
expansion

>  <fragmenstein_error>  (308) 


$$$$
C3330-P111
     RDKit          3D

 38 38  0  0  0  0  0  0  0  0999 V2000
   13.1051    0.6230   14.7981 C   0  0  0  0  0  0  0  0  0  0  0  0
   13.1244   -0.8185   15.2297 C   0  0  0  0  0  0  0  0  0  0  0  0
   11.8977   -1.5034   15.0563 C   0  0  0  0  0  0  0  0  0  0  0  0
   11.7262   -2.8179   15.4675 C   0  0  0  0  0  0  0  0  0  0  0  0
   12.7753   -3.4779   16.0737 C   0  0  0  0  0  0  0  0  0  0  0  0
   14.0130   -2.8466   16.1886 C   0  0  0  0  0  0  0  0  0  0  0  0
   14.2344   -1.4990   15.8044 C   0  0  0  0  0  0  0  0  0  0  0  0
   15.6761   -0.8996   16.0007 C   0  0  0  0  0  0  0  0  0  0  0  0
   15.5732    0.4765   16.7270 C   0  0  0  0  0  0  0  0  0  0  0  0
   16.3032   -0.6181   14.6089 C   0  0  0  0  0  0  0  0  0  0  0  0
   16.6136   -2.0054   13.5355 S   0  0  0  0  0  0  0  0  0  0  0  0
   15.1935   -2.0864   12.4748 C   0  0  0  0  0  0  0  0  0  0  0  0
   16.7067   -3.2303   14.2990 O   0  0  0  0  0  0  0  0  0  0  0  0
   17.7206   -1.6050   12.6783 O   0  0  0  0  0  0  0  0  0  0  0  0
   16.5565   -1.7829   16.8491 N   0  0  0  0  0  0  0  0  0  0  0  0
   16.1939   -1.8849   18.2641 C   0  0  0  0  0  0  0  0  0  0  0  0
   18.0054   -1.5725   16.7603 C   0  0  0  0  0  0  0  0  0  0  0  0
   12.2078    0.8515   14.2100 H   0  0  0  0  0  0  0  0  0  0  0  0
   13.9402    0.8868   14.1536 H   0  0  0  0  0  0  0  0  0  0  0  0
   13.0755    1.2768   15.6745 H   0  0  0  0  0  0  0  0  0  0  0  0
   11.0495   -1.0084   14.5811 H   0  0  0  0  0  0  0  0  0  0  0  0
   10.7849   -3.3291   15.2917 H   0  0  0  0  0  0  0  0  0  0  0  0
   12.6610   -4.5072   16.4045 H   0  0  0  0  0  0  0  0  0  0  0  0
   14.8313   -3.4565   16.5711 H   0  0  0  0  0  0  0  0  0  0  0  0
   14.8850    0.4412   17.5797 H   0  0  0  0  0  0  0  0  0  0  0  0
   16.5466    0.8187   17.0964 H   0  0  0  0  0  0  0  0  0  0  0  0
   15.2377    1.2760   16.0618 H   0  0  0  0  0  0  0  0  0  0  0  0
   17.2725   -0.1169   14.7312 H   0  0  0  0  0  0  0  0  0  0  0  0
   15.7266    0.0863   14.0093 H   0  0  0  0  0  0  0  0  0  0  0  0
   15.0623   -1.1180   11.9877 H   0  0  0  0  0  0  0  0  0  0  0  0
   15.3749   -2.8491   11.7153 H   0  0  0  0  0  0  0  0  0  0  0  0
   14.3087   -2.3418   13.0515 H   0  0  0  0  0  0  0  0  0  0  0  0
   16.5255   -1.0111   18.8373 H   0  0  0  0  0  0  0  0  0  0  0  0
   16.6590   -2.7723   18.7092 H   0  0  0  0  0  0  0  0  0  0  0  0
   15.1178   -1.9895   18.4304 H   0  0  0  0  0  0  0  0  0  0  0  0
   18.5369   -2.3007   17.3855 H   0  0  0  0  0  0  0  0  0  0  0  0
   18.3025   -0.5727   17.0928 H   0  0  0  0  0  0  0  0  0  0  0  0
   18.3961   -1.7327   15.7531 H   0  0  0  0  0  0  0  0  0  0  0  0
  1  2  1  0
  2  3  2  0
  3  4  1  0
  4  5  2  0
  5  6  1  0
  6  7  2  0
  7  8  1  0
  8  9  1  0
  8 10  1  0
 10 11  1  0
 11 12  1  0
 11 13  2  0
 11 14  2  0
  8 15  1  0
 15 16  1  0
 15 17  1  0
  7  2  1  0
  1 18  1  0
  1 19  1  0
  1 20  1  0
  3 21  1  0
  4 22  1  0
  5 23  1  0
  6 24  1  0
  9 25  1  0
  9 26  1  0
  9 27  1  0
 10 28  1  0
 10 29  1  0
 12 30  1  0
 12 31  1  0
 12 32  1  0
 16 33  1  0
 16 34  1  0
 16 35  1  0
 17 36  1  0
 17 37  1  0
 17 38  1  0
M  END
>  <Energy>  (309) 
59.243585876088758

>  <compound_id>  (309) 
3330

>  <target_id>  (309) 
1

>  <reference_id>  (309) 
111

>  <inspiration_ids>  (309) 
[111, 12]

>  <energy_score>  (309) 
-51.01727599716051

>  <distance_score>  (309) 
0.9837017484413386

>  <path>  (309) 
/opt/xchem-fragalysis-2/maxwin/BulkDock/SCRATCH/505734/C3330-P111/C3330-P111.minimised.mol

>  <scratch_subdir>  (309) 
/opt/xchem-fragalysis-2/maxwin/BulkDock/SCRATCH/505734/C3330-P111

>  <fragmenstein_runtime>  (309) 
49.55741024017334

>  <fragmenstein_outcome>  (309) 
acceptable

>  <fragmenstein_mode>  (309) 
expansion

>  <fragmenstein_error>  (309) 


$$$$
C3330-P12
     RDKit          3D

 38 38  0  0  0  0  0  0  0  0999 V2000
   13.0913    0.6459   14.8416 C   0  0  0  0  0  0  0  0  0  0  0  0
   13.1177   -0.7971   15.2675 C   0  0  0  0  0  0  0  0  0  0  0  0
   11.8927   -1.4852   15.0939 C   0  0  0  0  0  0  0  0  0  0  0  0
   11.7252   -2.8008   15.5025 C   0  0  0  0  0  0  0  0  0  0  0  0
   12.7770   -3.4600   16.1045 C   0  0  0  0  0  0  0  0  0  0  0  0
   14.0137   -2.8254   16.2176 C   0  0  0  0  0  0  0  0  0  0  0  0
   14.2307   -1.4756   15.8386 C   0  0  0  0  0  0  0  0  0  0  0  0
   15.6691   -0.8701   16.0414 C   0  0  0  0  0  0  0  0  0  0  0  0
   15.5547    0.4948   16.7875 C   0  0  0  0  0  0  0  0  0  0  0  0
   16.2974   -0.5619   14.6557 C   0  0  0  0  0  0  0  0  0  0  0  0
   16.6157   -1.9274   13.5592 S   0  0  0  0  0  0  0  0  0  0  0  0
   15.1888   -2.0052   12.5063 C   0  0  0  0  0  0  0  0  0  0  0  0
   16.7335   -3.1595   14.3073 O   0  0  0  0  0  0  0  0  0  0  0  0
   17.7120   -1.5000   12.7008 O   0  0  0  0  0  0  0  0  0  0  0  0
   16.5555   -1.7597   16.8789 N   0  0  0  0  0  0  0  0  0  0  0  0
   16.1952   -1.8793   18.2930 C   0  0  0  0  0  0  0  0  0  0  0  0
   18.0032   -1.5382   16.7924 C   0  0  0  0  0  0  0  0  0  0  0  0
   12.1922    0.8726   14.2555 H   0  0  0  0  0  0  0  0  0  0  0  0
   13.9239    0.9165   14.1970 H   0  0  0  0  0  0  0  0  0  0  0  0
   13.0593    1.2961   15.7206 H   0  0  0  0  0  0  0  0  0  0  0  0
   11.0421   -0.9913   14.6218 H   0  0  0  0  0  0  0  0  0  0  0  0
   10.7854   -3.3141   15.3255 H   0  0  0  0  0  0  0  0  0  0  0  0
   12.6671   -4.4932   16.4255 H   0  0  0  0  0  0  0  0  0  0  0  0
   14.8352   -3.4351   16.5921 H   0  0  0  0  0  0  0  0  0  0  0  0
   14.8676    0.4417   17.6401 H   0  0  0  0  0  0  0  0  0  0  0  0
   16.5256    0.8403   17.1605 H   0  0  0  0  0  0  0  0  0  0  0  0
   15.2108    1.3004   16.1338 H   0  0  0  0  0  0  0  0  0  0  0  0
   17.2645   -0.0591   14.7889 H   0  0  0  0  0  0  0  0  0  0  0  0
   15.7205    0.1518   14.0680 H   0  0  0  0  0  0  0  0  0  0  0  0
   15.0361   -1.0246   12.0504 H   0  0  0  0  0  0  0  0  0  0  0  0
   15.3779   -2.7375   11.7198 H   0  0  0  0  0  0  0  0  0  0  0  0
   14.3133   -2.2926   13.0810 H   0  0  0  0  0  0  0  0  0  0  0  0
   16.5243   -1.0110   18.8760 H   0  0  0  0  0  0  0  0  0  0  0  0
   16.6644   -2.7699   18.7272 H   0  0  0  0  0  0  0  0  0  0  0  0
   15.1199   -1.9897   18.4603 H   0  0  0  0  0  0  0  0  0  0  0  0
   18.5397   -2.2701   17.4090 H   0  0  0  0  0  0  0  0  0  0  0  0
   18.2932   -0.5404   17.1369 H   0  0  0  0  0  0  0  0  0  0  0  0
   18.3954   -1.6837   15.7836 H   0  0  0  0  0  0  0  0  0  0  0  0
  1  2  1  0
  2  3  2  0
  3  4  1  0
  4  5  2  0
  5  6  1  0
  6  7  2  0
  7  8  1  0
  8  9  1  0
  8 10  1  0
 10 11  1  0
 11 12  1  0
 11 13  2  0
 11 14  2  0
  8 15  1  0
 15 16  1  0
 15 17  1  0
  7  2  1  0
  1 18  1  0
  1 19  1  0
  1 20  1  0
  3 21  1  0
  4 22  1  0
  5 23  1  0
  6 24  1  0
  9 25  1  0
  9 26  1  0
  9 27  1  0
 10 28  1  0
 10 29  1  0
 12 30  1  0
 12 31  1  0
 12 32  1  0
 16 33  1  0
 16 34  1  0
 16 35  1  0
 17 36  1  0
 17 37  1  0
 17 38  1  0
M  END
>  <Energy>  (310) 
59.494888305657078

>  <compound_id>  (310) 
3330

>  <target_id>  (310) 
1

>  <reference_id>  (310) 
12

>  <inspiration_ids>  (310) 
[111, 12]

>  <energy_score>  (310) 
-50.765973567591885

>  <distance_score>  (310) 
1.0005706153111136

>  <path>  (310) 
/opt/xchem-fragalysis-2/maxwin/BulkDock/SCRATCH/505734/C3330-P12/C3330-P12.minimised.mol

>  <scratch_subdir>  (310) 
/opt/xchem-fragalysis-2/maxwin/BulkDock/SCRATCH/505734/C3330-P12

>  <fragmenstein_runtime>  (310) 
51.60603475570679

>  <fragmenstein_outcome>  (310) 
too moved

>  <fragmenstein_mode>  (310) 
expansion

>  <fragmenstein_error>  (310) 


$$$$
C92-P111
     RDKit          3D

 25 25  0  0  0  0  0  0  0  0999 V2000
   13.4324    1.9386   11.8406 C   0  0  0  0  0  0  0  0  0  0  0  0
   14.8757    1.6995   12.8449 S   0  0  0  0  0  0  0  0  0  0  0  0
   15.9944    1.5206   11.9384 O   0  0  0  0  0  0  0  0  0  0  0  0
   14.9120    2.7461   13.8497 O   0  0  0  0  0  0  0  0  0  0  0  0
   14.5902    0.1419   13.6500 C   0  0  0  0  0  0  0  0  0  0  0  0
   13.9609    0.2474   15.0306 C   0  0  0  0  0  0  0  0  0  0  0  0
   14.7774    0.9787   15.9406 O   0  0  0  0  0  0  0  0  0  0  0  0
   12.5204    0.6991   15.1294 C   0  0  0  0  0  0  0  0  0  0  0  0
   12.1764    1.9862   15.5755 C   0  0  0  0  0  0  0  0  0  0  0  0
   10.8466    2.3279   15.8218 C   0  0  0  0  0  0  0  0  0  0  0  0
    9.8424    1.3862   15.6298 C   0  0  0  0  0  0  0  0  0  0  0  0
   10.1587    0.1232   15.1368 C   0  0  0  0  0  0  0  0  0  0  0  0
   11.4878   -0.2171   14.8783 C   0  0  0  0  0  0  0  0  0  0  0  0
   13.5525    2.8753   11.2921 H   0  0  0  0  0  0  0  0  0  0  0  0
   13.3531    1.1075   11.1398 H   0  0  0  0  0  0  0  0  0  0  0  0
   12.5494    1.9945   12.4768 H   0  0  0  0  0  0  0  0  0  0  0  0
   15.5850   -0.3095   13.7490 H   0  0  0  0  0  0  0  0  0  0  0  0
   14.0046   -0.4865   12.9718 H   0  0  0  0  0  0  0  0  0  0  0  0
   13.9729   -0.7712   15.4420 H   0  0  0  0  0  0  0  0  0  0  0  0
   14.9860    1.8488   15.5391 H   0  0  0  0  0  0  0  0  0  0  0  0
   12.9446    2.7256   15.7958 H   0  0  0  0  0  0  0  0  0  0  0  0
   10.6037    3.3136   16.2121 H   0  0  0  0  0  0  0  0  0  0  0  0
    8.8153    1.6342   15.8855 H   0  0  0  0  0  0  0  0  0  0  0  0
    9.3733   -0.6126   14.9824 H   0  0  0  0  0  0  0  0  0  0  0  0
   11.7092   -1.2254   14.5332 H   0  0  0  0  0  0  0  0  0  0  0  0
  1  2  1  0
  2  3  2  0
  2  4  2  0
  2  5  1  0
  5  6  1  0
  6  7  1  0
  6  8  1  0
  8  9  2  0
  9 10  1  0
 10 11  2  0
 11 12  1  0
 12 13  2  0
 13  8  1  0
  1 14  1  0
  1 15  1  0
  1 16  1  0
  5 17  1  0
  5 18  1  0
  6 19  1  0
  7 20  1  0
  9 21  1  0
 10 22  1  0
 11 23  1  0
 12 24  1  0
 13 25  1  0
M  END
>  <Energy>  (311) 
16.6604032845798

>  <compound_id>  (311) 
92

>  <target_id>  (311) 
1

>  <reference_id>  (311) 
111

>  <inspiration_ids>  (311) 
[111, 15]

>  <energy_score>  (311) 
-20.464982735280287

>  <distance_score>  (311) 
0.6377761352025474

>  <path>  (311) 
/opt/xchem-fragalysis-2/maxwin/BulkDock/SCRATCH/505734/C92-P111/C92-P111.minimised.mol

>  <scratch_subdir>  (311) 
/opt/xchem-fragalysis-2/maxwin/BulkDock/SCRATCH/505734/C92-P111

>  <fragmenstein_runtime>  (311) 
47.53094553947449

>  <fragmenstein_outcome>  (311) 
acceptable

>  <fragmenstein_mode>  (311) 
expansion

>  <fragmenstein_error>  (311) 


$$$$
C92-P15
     RDKit          3D

 25 25  0  0  0  0  0  0  0  0999 V2000
   13.4278    1.8451   11.7775 C   0  0  0  0  0  0  0  0  0  0  0  0
   14.8378    1.7443   12.8500 S   0  0  0  0  0  0  0  0  0  0  0  0
   15.9957    1.6195   11.9810 O   0  0  0  0  0  0  0  0  0  0  0  0
   14.7446    2.8446   13.7867 O   0  0  0  0  0  0  0  0  0  0  0  0
   14.6204    0.1762   13.6619 C   0  0  0  0  0  0  0  0  0  0  0  0
   13.9468    0.1979   15.0207 C   0  0  0  0  0  0  0  0  0  0  0  0
   14.7851    0.8190   15.9877 O   0  0  0  0  0  0  0  0  0  0  0  0
   12.5168    0.6770   15.1289 C   0  0  0  0  0  0  0  0  0  0  0  0
   12.2103    1.9824   15.5462 C   0  0  0  0  0  0  0  0  0  0  0  0
   10.8951    2.3551   15.8204 C   0  0  0  0  0  0  0  0  0  0  0  0
    9.8671    1.4309   15.6682 C   0  0  0  0  0  0  0  0  0  0  0  0
   10.1455    0.1517   15.1919 C   0  0  0  0  0  0  0  0  0  0  0  0
   11.4617   -0.2230   14.9180 C   0  0  0  0  0  0  0  0  0  0  0  0
   13.4997    2.7741   11.2077 H   0  0  0  0  0  0  0  0  0  0  0  0
   13.4410    0.9931   11.0967 H   0  0  0  0  0  0  0  0  0  0  0  0
   12.5158    1.8487   12.3749 H   0  0  0  0  0  0  0  0  0  0  0  0
   15.6353   -0.2252   13.7747 H   0  0  0  0  0  0  0  0  0  0  0  0
   14.0876   -0.4771   12.9627 H   0  0  0  0  0  0  0  0  0  0  0  0
   13.9265   -0.8505   15.3499 H   0  0  0  0  0  0  0  0  0  0  0  0
   14.2482    1.0608   16.7625 H   0  0  0  0  0  0  0  0  0  0  0  0
   13.0017    2.7147   15.7117 H   0  0  0  0  0  0  0  0  0  0  0  0
   10.6845    3.3558   16.1928 H   0  0  0  0  0  0  0  0  0  0  0  0
    8.8493    1.7112   15.9275 H   0  0  0  0  0  0  0  0  0  0  0  0
    9.3406   -0.5662   15.0534 H   0  0  0  0  0  0  0  0  0  0  0  0
   11.6555   -1.2401   14.5818 H   0  0  0  0  0  0  0  0  0  0  0  0
  1  2  1  0
  2  3  2  0
  2  4  2  0
  2  5  1  0
  5  6  1  0
  6  7  1  0
  6  8  1  0
  8  9  2  0
  9 10  1  0
 10 11  2  0
 11 12  1  0
 12 13  2  0
 13  8  1  0
  1 14  1  0
  1 15  1  0
  1 16  1  0
  5 17  1  0
  5 18  1  0
  6 19  1  0
  7 20  1  0
  9 21  1  0
 10 22  1  0
 11 23  1  0
 12 24  1  0
 13 25  1  0
M  END
>  <Energy>  (312) 
19.237960765779754

>  <compound_id>  (312) 
92

>  <target_id>  (312) 
1

>  <reference_id>  (312) 
15

>  <inspiration_ids>  (312) 
[111, 15]

>  <energy_score>  (312) 
-17.887425254079645

>  <distance_score>  (312) 
0.6322654588478929

>  <path>  (312) 
/opt/xchem-fragalysis-2/maxwin/BulkDock/SCRATCH/505734/C92-P15/C92-P15.minimised.mol

>  <scratch_subdir>  (312) 
/opt/xchem-fragalysis-2/maxwin/BulkDock/SCRATCH/505734/C92-P15

>  <fragmenstein_runtime>  (312) 
50.34845471382141

>  <fragmenstein_outcome>  (312) 
acceptable

>  <fragmenstein_mode>  (312) 
expansion

>  <fragmenstein_error>  (312) 


$$$$
C92-P111
     RDKit          3D

 25 25  0  0  0  0  0  0  0  0999 V2000
   13.7176    1.5409   11.6133 C   0  0  0  0  0  0  0  0  0  0  0  0
   14.9998    1.6958   12.8310 S   0  0  0  0  0  0  0  0  0  0  0  0
   16.2563    1.4959   12.1294 O   0  0  0  0  0  0  0  0  0  0  0  0
   14.7630    2.9237   13.5619 O   0  0  0  0  0  0  0  0  0  0  0  0
   14.7706    0.2863   13.9010 C   0  0  0  0  0  0  0  0  0  0  0  0
   13.4510    0.3190   14.6564 C   0  0  0  0  0  0  0  0  0  0  0  0
   13.5501    1.2099   15.7662 O   0  0  0  0  0  0  0  0  0  0  0  0
   13.0757   -1.0475   15.1984 C   0  0  0  0  0  0  0  0  0  0  0  0
   13.8880   -1.6817   16.1517 C   0  0  0  0  0  0  0  0  0  0  0  0
   13.5344   -2.9228   16.6770 C   0  0  0  0  0  0  0  0  0  0  0  0
   12.3672   -3.5459   16.2517 C   0  0  0  0  0  0  0  0  0  0  0  0
   11.5564   -2.9325   15.3000 C   0  0  0  0  0  0  0  0  0  0  0  0
   11.9037   -1.6885   14.7803 C   0  0  0  0  0  0  0  0  0  0  0  0
   12.7451    1.7193   12.0721 H   0  0  0  0  0  0  0  0  0  0  0  0
   13.8969    2.2858   10.8349 H   0  0  0  0  0  0  0  0  0  0  0  0
   13.7731    0.5394   11.1873 H   0  0  0  0  0  0  0  0  0  0  0  0
   14.8477   -0.5959   13.2550 H   0  0  0  0  0  0  0  0  0  0  0  0
   15.6261    0.2906   14.5861 H   0  0  0  0  0  0  0  0  0  0  0  0
   12.6369    0.6893   14.0274 H   0  0  0  0  0  0  0  0  0  0  0  0
   12.9043    0.9309   16.4364 H   0  0  0  0  0  0  0  0  0  0  0  0
   14.8009   -1.2026   16.5034 H   0  0  0  0  0  0  0  0  0  0  0  0
   14.1679   -3.4023   17.4188 H   0  0  0  0  0  0  0  0  0  0  0  0
   12.0914   -4.5180   16.6529 H   0  0  0  0  0  0  0  0  0  0  0  0
   10.6538   -3.4286   14.9534 H   0  0  0  0  0  0  0  0  0  0  0  0
   11.2494   -1.2240   14.0456 H   0  0  0  0  0  0  0  0  0  0  0  0
  1  2  1  0
  2  3  2  0
  2  4  2  0
  2  5  1  0
  5  6  1  0
  6  7  1  0
  6  8  1  0
  8  9  2  0
  9 10  1  0
 10 11  2  0
 11 12  1  0
 12 13  2  0
 13  8  1  0
  1 14  1  0
  1 15  1  0
  1 16  1  0
  5 17  1  0
  5 18  1  0
  6 19  1  0
  7 20  1  0
  9 21  1  0
 10 22  1  0
 11 23  1  0
 12 24  1  0
 13 25  1  0
M  END
>  <Energy>  (313) 
15.679379583114832

>  <compound_id>  (313) 
92

>  <target_id>  (313) 
1

>  <reference_id>  (313) 
111

>  <inspiration_ids>  (313) 
[111, 20]

>  <energy_score>  (313) 
-24.856639974427196

>  <distance_score>  (313) 
0.6481457947174715

>  <path>  (313) 
/opt/xchem-fragalysis-2/maxwin/BulkDock/SCRATCH/505734/C92-P111/C92-P111.minimised.mol

>  <scratch_subdir>  (313) 
/opt/xchem-fragalysis-2/maxwin/BulkDock/SCRATCH/505734/C92-P111

>  <fragmenstein_runtime>  (313) 
104.14298057556152

>  <fragmenstein_outcome>  (313) 
acceptable

>  <fragmenstein_mode>  (313) 
expansion

>  <fragmenstein_error>  (313) 


$$$$
C92-P20
     RDKit          3D

 25 25  0  0  0  0  0  0  0  0999 V2000
   13.8368    1.4842   11.6069 C   0  0  0  0  0  0  0  0  0  0  0  0
   15.0666    1.6805   12.8696 S   0  0  0  0  0  0  0  0  0  0  0  0
   16.3530    1.5016   12.2191 O   0  0  0  0  0  0  0  0  0  0  0  0
   14.7698    2.9090   13.5771 O   0  0  0  0  0  0  0  0  0  0  0  0
   14.8175    0.2734   13.9387 C   0  0  0  0  0  0  0  0  0  0  0  0
   13.5087    0.3456   14.7107 C   0  0  0  0  0  0  0  0  0  0  0  0
   13.6738    1.1982   15.8411 O   0  0  0  0  0  0  0  0  0  0  0  0
   13.0959   -1.0152   15.2370 C   0  0  0  0  0  0  0  0  0  0  0  0
   13.8796   -1.6726   16.1984 C   0  0  0  0  0  0  0  0  0  0  0  0
   13.5056   -2.9200   16.6952 C   0  0  0  0  0  0  0  0  0  0  0  0
   12.3431   -3.5269   16.2349 C   0  0  0  0  0  0  0  0  0  0  0  0
   11.5589   -2.8892   15.2770 C   0  0  0  0  0  0  0  0  0  0  0  0
   11.9286   -1.6397   14.7838 C   0  0  0  0  0  0  0  0  0  0  0  0
   12.8419    1.6127   12.0333 H   0  0  0  0  0  0  0  0  0  0  0  0
   14.0099    2.2433   10.8411 H   0  0  0  0  0  0  0  0  0  0  0  0
   13.9537    0.4896   11.1773 H   0  0  0  0  0  0  0  0  0  0  0  0
   14.8651   -0.6090   13.2904 H   0  0  0  0  0  0  0  0  0  0  0  0
   15.6813    0.2544   14.6132 H   0  0  0  0  0  0  0  0  0  0  0  0
   12.7026    0.7660   14.1023 H   0  0  0  0  0  0  0  0  0  0  0  0
   12.8269    1.2270   16.3174 H   0  0  0  0  0  0  0  0  0  0  0  0
   14.7872   -1.2041   16.5777 H   0  0  0  0  0  0  0  0  0  0  0  0
   14.1200   -3.4140   17.4434 H   0  0  0  0  0  0  0  0  0  0  0  0
   12.0498   -4.5024   16.6144 H   0  0  0  0  0  0  0  0  0  0  0  0
   10.6584   -3.3689   14.9041 H   0  0  0  0  0  0  0  0  0  0  0  0
   11.2958   -1.1588   14.0411 H   0  0  0  0  0  0  0  0  0  0  0  0
  1  2  1  0
  2  3  2  0
  2  4  2  0
  2  5  1  0
  5  6  1  0
  6  7  1  0
  6  8  1  0
  8  9  2  0
  9 10  1  0
 10 11  2  0
 11 12  1  0
 12 13  2  0
 13  8  1  0
  1 14  1  0
  1 15  1  0
  1 16  1  0
  5 17  1  0
  5 18  1  0
  6 19  1  0
  7 20  1  0
  9 21  1  0
 10 22  1  0
 11 23  1  0
 12 24  1  0
 13 25  1  0
M  END
>  <Energy>  (314) 
15.888869765490339

>  <compound_id>  (314) 
92

>  <target_id>  (314) 
1

>  <reference_id>  (314) 
20

>  <inspiration_ids>  (314) 
[111, 20]

>  <energy_score>  (314) 
-24.64714979205266

>  <distance_score>  (314) 
0.6703226547851525

>  <path>  (314) 
/opt/xchem-fragalysis-2/maxwin/BulkDock/SCRATCH/505734/C92-P20/C92-P20.minimised.mol

>  <scratch_subdir>  (314) 
/opt/xchem-fragalysis-2/maxwin/BulkDock/SCRATCH/505734/C92-P20

>  <fragmenstein_runtime>  (314) 
85.47328543663025

>  <fragmenstein_outcome>  (314) 
acceptable

>  <fragmenstein_mode>  (314) 
expansion

>  <fragmenstein_error>  (314) 


$$$$
C1138-P111
     RDKit          3D

 55 56  0  0  0  0  0  0  0  0999 V2000
   18.8636   -3.4343   16.5197 C   0  0  0  0  0  0  0  0  0  0  0  0
   17.8788   -4.6137   16.5282 C   0  0  0  0  0  0  0  0  0  0  0  0
   16.9503   -4.6093   15.3358 C   0  0  0  0  0  0  0  0  0  0  0  0
   15.9019   -3.5459   15.5273 C   0  0  0  0  0  0  0  0  0  0  0  0
   14.9977   -3.8887   16.7011 C   0  0  0  0  0  0  0  0  0  0  0  0
   13.8611   -2.9822   16.7833 N   0  0  0  0  0  0  0  0  0  0  0  0
   14.1536   -1.5223   16.7976 C   0  0  0  0  0  0  0  0  0  0  0  0
   15.3725   -1.0772   17.6478 C   0  0  0  0  0  0  0  0  0  0  0  0
   16.5956   -0.9381   16.9536 O   0  0  0  0  0  0  0  0  0  0  0  0
   15.1500    0.0807   18.5853 C   0  0  0  0  0  0  0  0  0  0  0  0
   15.3920    1.3969   18.1899 C   0  0  0  0  0  0  0  0  0  0  0  0
   15.2708    2.4310   19.1141 C   0  0  0  0  0  0  0  0  0  0  0  0
   14.9004    2.1609   20.4314 C   0  0  0  0  0  0  0  0  0  0  0  0
   14.6355    0.8574   20.8304 C   0  0  0  0  0  0  0  0  0  0  0  0
   14.7525   -0.1741   19.9095 C   0  0  0  0  0  0  0  0  0  0  0  0
   14.0209   -0.6402   15.1992 S   0  0  0  0  0  0  0  0  0  0  0  0
   12.5478   -1.3429   14.4933 C   0  0  0  0  0  0  0  0  0  0  0  0
   13.7079    0.7515   15.4746 O   0  0  0  0  0  0  0  0  0  0  0  0
   15.1017   -0.9724   14.2906 O   0  0  0  0  0  0  0  0  0  0  0  0
   15.7734   -4.1370   17.9707 N   0  0  0  0  0  0  0  0  0  0  0  0
   14.9273   -4.2885   19.4458 S   0  0  0  0  0  0  0  0  0  0  0  0
   16.0561   -3.6401   20.6746 C   0  0  0  0  0  0  0  0  0  0  0  0
   14.6947   -5.6938   19.6904 O   0  0  0  0  0  0  0  0  0  0  0  0
   13.7909   -3.3937   19.3899 O   0  0  0  0  0  0  0  0  0  0  0  0
   17.1811   -4.7486   17.8989 C   0  0  0  0  0  0  0  0  0  0  0  0
   17.3464   -6.2262   18.3545 C   0  0  0  0  0  0  0  0  0  0  0  0
   17.0979   -6.4380   19.7349 O   0  0  0  0  0  0  0  0  0  0  0  0
   18.3938   -2.4957   16.8078 H   0  0  0  0  0  0  0  0  0  0  0  0
   19.3161   -3.3044   15.5310 H   0  0  0  0  0  0  0  0  0  0  0  0
   19.6777   -3.6183   17.2302 H   0  0  0  0  0  0  0  0  0  0  0  0
   18.5335   -5.4830   16.3725 H   0  0  0  0  0  0  0  0  0  0  0  0
   16.4912   -5.5961   15.2195 H   0  0  0  0  0  0  0  0  0  0  0  0
   17.5168   -4.4147   14.4178 H   0  0  0  0  0  0  0  0  0  0  0  0
   15.3532   -3.4051   14.6045 H   0  0  0  0  0  0  0  0  0  0  0  0
   16.4323   -2.6126   15.6550 H   0  0  0  0  0  0  0  0  0  0  0  0
   14.5154   -4.8188   16.4331 H   0  0  0  0  0  0  0  0  0  0  0  0
   13.3704   -3.2029   17.6594 H   0  0  0  0  0  0  0  0  0  0  0  0
   13.2671   -1.1169   17.3042 H   0  0  0  0  0  0  0  0  0  0  0  0
   15.6003   -1.8711   18.3462 H   0  0  0  0  0  0  0  0  0  0  0  0
   17.1738   -0.3426   17.4616 H   0  0  0  0  0  0  0  0  0  0  0  0
   15.6844    1.6300   17.1670 H   0  0  0  0  0  0  0  0  0  0  0  0
   15.4615    3.4564   18.8062 H   0  0  0  0  0  0  0  0  0  0  0  0
   14.7983    2.9759   21.1441 H   0  0  0  0  0  0  0  0  0  0  0  0
   14.3193    0.6492   21.8501 H   0  0  0  0  0  0  0  0  0  0  0  0
   14.5221   -1.1779   20.2517 H   0  0  0  0  0  0  0  0  0  0  0  0
   11.7260   -1.2316   15.2033 H   0  0  0  0  0  0  0  0  0  0  0  0
   12.3196   -0.7953   13.5768 H   0  0  0  0  0  0  0  0  0  0  0  0
   12.7218   -2.3939   14.2601 H   0  0  0  0  0  0  0  0  0  0  0  0
   15.4986   -3.5415   21.6094 H   0  0  0  0  0  0  0  0  0  0  0  0
   16.4121   -2.6600   20.3585 H   0  0  0  0  0  0  0  0  0  0  0  0
   16.8945   -4.3148   20.8284 H   0  0  0  0  0  0  0  0  0  0  0  0
   17.7615   -4.1563   18.6198 H   0  0  0  0  0  0  0  0  0  0  0  0
   16.7663   -6.9298   17.7614 H   0  0  0  0  0  0  0  0  0  0  0  0
   18.3940   -6.5208   18.2208 H   0  0  0  0  0  0  0  0  0  0  0  0
   16.1459   -6.6743   19.8063 H   0  0  0  0  0  0  0  0  0  0  0  0
  1  2  1  0
  2  3  1  0
  3  4  1  0
  4  5  1  0
  5  6  1  0
  6  7  1  0
  7  8  1  0
  8  9  1  0
  8 10  1  0
 10 11  2  0
 11 12  1  0
 12 13  2  0
 13 14  1  0
 14 15  2  0
  7 16  1  0
 16 17  1  0
 16 18  2  0
 16 19  2  0
  5 20  1  0
 20 21  1  0
 21 22  1  0
 21 23  2  0
 21 24  2  0
 20 25  1  0
 25 26  1  0
 26 27  1  0
 25  2  1  0
 15 10  1  0
  1 28  1  0
  1 29  1  0
  1 30  1  0
  2 31  1  0
  3 32  1  0
  3 33  1  0
  4 34  1  0
  4 35  1  0
  5 36  1  0
  6 37  1  0
  7 38  1  0
  8 39  1  0
  9 40  1  0
 11 41  1  0
 12 42  1  0
 13 43  1  0
 14 44  1  0
 15 45  1  0
 17 46  1  0
 17 47  1  0
 17 48  1  0
 22 49  1  0
 22 50  1  0
 22 51  1  0
 25 52  1  0
 26 53  1  0
 26 54  1  0
 27 55  1  0
M  END
>  <Energy>  (315) 
51.465353900290026

>  <compound_id>  (315) 
1138

>  <target_id>  (315) 
1

>  <reference_id>  (315) 
111

>  <inspiration_ids>  (315) 
[111, 23]

>  <energy_score>  (315) 
-77.12814939932014

>  <distance_score>  (315) 
2.19312891600961

>  <path>  (315) 
/opt/xchem-fragalysis-2/maxwin/BulkDock/SCRATCH/505734/C1138-P111/C1138-P111.minimised.mol

>  <scratch_subdir>  (315) 
/opt/xchem-fragalysis-2/maxwin/BulkDock/SCRATCH/505734/C1138-P111

>  <fragmenstein_runtime>  (315) 
7.300735950469971

>  <fragmenstein_outcome>  (315) 
too moved

>  <fragmenstein_mode>  (315) 
expansion

>  <fragmenstein_error>  (315) 


$$$$
C1138-P23
     RDKit          3D

 55 56  0  0  0  0  0  0  0  0999 V2000
   15.4790   -4.2636   18.2600 C   0  0  0  0  0  0  0  0  0  0  0  0
   15.0801   -4.4708   16.7859 C   0  0  0  0  0  0  0  0  0  0  0  0
   16.1685   -3.9504   15.8587 C   0  0  0  0  0  0  0  0  0  0  0  0
   15.7410   -2.8261   14.9672 C   0  0  0  0  0  0  0  0  0  0  0  0
   14.4047   -2.1924   15.2768 C   0  0  0  0  0  0  0  0  0  0  0  0
   14.2029   -1.4938   16.4977 N   0  0  0  0  0  0  0  0  0  0  0  0
   15.0850   -0.3466   16.6062 C   0  0  0  0  0  0  0  0  0  0  0  0
   16.3081   -0.7471   17.4657 C   0  0  0  0  0  0  0  0  0  0  0  0
   17.5635   -0.7334   16.8394 O   0  0  0  0  0  0  0  0  0  0  0  0
   16.2285   -0.0097   18.7839 C   0  0  0  0  0  0  0  0  0  0  0  0
   16.5288    1.3530   18.8438 C   0  0  0  0  0  0  0  0  0  0  0  0
   16.2427    2.0753   19.9982 C   0  0  0  0  0  0  0  0  0  0  0  0
   15.6683    1.4439   21.1010 C   0  0  0  0  0  0  0  0  0  0  0  0
   15.3875    0.0827   21.0615 C   0  0  0  0  0  0  0  0  0  0  0  0
   15.6696   -0.6425   19.9095 C   0  0  0  0  0  0  0  0  0  0  0  0
   15.3597    0.6894   15.1510 S   0  0  0  0  0  0  0  0  0  0  0  0
   13.7335    0.9395   14.4673 C   0  0  0  0  0  0  0  0  0  0  0  0
   15.7881    1.9865   15.6295 O   0  0  0  0  0  0  0  0  0  0  0  0
   16.1176   -0.0248   14.1415 O   0  0  0  0  0  0  0  0  0  0  0  0
   13.3495   -3.1404   15.3412 N   0  0  0  0  0  0  0  0  0  0  0  0
   12.0333   -2.7489   14.2978 S   0  0  0  0  0  0  0  0  0  0  0  0
   10.7668   -2.5055   15.4341 C   0  0  0  0  0  0  0  0  0  0  0  0
   11.6142   -3.8603   13.4919 O   0  0  0  0  0  0  0  0  0  0  0  0
   12.2702   -1.4648   13.6791 O   0  0  0  0  0  0  0  0  0  0  0  0
   13.5764   -4.2574   16.3550 C   0  0  0  0  0  0  0  0  0  0  0  0
   12.6092   -4.1249   17.4948 C   0  0  0  0  0  0  0  0  0  0  0  0
   12.9272   -4.8511   18.6686 O   0  0  0  0  0  0  0  0  0  0  0  0
   16.5569   -4.1184   18.3882 H   0  0  0  0  0  0  0  0  0  0  0  0
   14.9722   -3.4134   18.7123 H   0  0  0  0  0  0  0  0  0  0  0  0
   15.2436   -5.1522   18.8563 H   0  0  0  0  0  0  0  0  0  0  0  0
   15.2392   -5.5366   16.6738 H   0  0  0  0  0  0  0  0  0  0  0  0
   17.0607   -3.6426   16.4172 H   0  0  0  0  0  0  0  0  0  0  0  0
   16.5351   -4.7723   15.2306 H   0  0  0  0  0  0  0  0  0  0  0  0
   15.7417   -3.1618   13.9253 H   0  0  0  0  0  0  0  0  0  0  0  0
   16.5536   -2.0991   14.9793 H   0  0  0  0  0  0  0  0  0  0  0  0
   14.2612   -1.5417   14.4243 H   0  0  0  0  0  0  0  0  0  0  0  0
   14.3409   -2.1058   17.2867 H   0  0  0  0  0  0  0  0  0  0  0  0
   14.4936    0.3482   17.2123 H   0  0  0  0  0  0  0  0  0  0  0  0
   16.2278   -1.7951   17.7517 H   0  0  0  0  0  0  0  0  0  0  0  0
   18.2224   -0.4061   17.4770 H   0  0  0  0  0  0  0  0  0  0  0  0
   16.9472    1.8752   17.9841 H   0  0  0  0  0  0  0  0  0  0  0  0
   16.4624    3.1400   20.0377 H   0  0  0  0  0  0  0  0  0  0  0  0
   15.4470    2.0170   21.9983 H   0  0  0  0  0  0  0  0  0  0  0  0
   14.9395   -0.4086   21.9229 H   0  0  0  0  0  0  0  0  0  0  0  0
   15.4205   -1.6982   19.9028 H   0  0  0  0  0  0  0  0  0  0  0  0
   13.7407    0.6488   13.4156 H   0  0  0  0  0  0  0  0  0  0  0  0
   13.4873    2.0010   14.5464 H   0  0  0  0  0  0  0  0  0  0  0  0
   13.0097    0.3679   15.0320 H   0  0  0  0  0  0  0  0  0  0  0  0
   11.1546   -1.9136   16.2451 H   0  0  0  0  0  0  0  0  0  0  0  0
    9.9151   -2.0126   14.9740 H   0  0  0  0  0  0  0  0  0  0  0  0
   10.5118   -3.5108   15.7351 H   0  0  0  0  0  0  0  0  0  0  0  0
   13.3049   -5.2138   15.9471 H   0  0  0  0  0  0  0  0  0  0  0  0
   12.5195   -3.0834   17.7604 H   0  0  0  0  0  0  0  0  0  0  0  0
   11.6501   -4.4893   17.1321 H   0  0  0  0  0  0  0  0  0  0  0  0
   12.1427   -4.7249   19.2484 H   0  0  0  0  0  0  0  0  0  0  0  0
  1  2  1  0
  2  3  1  0
  3  4  1  0
  4  5  1  0
  5  6  1  0
  6  7  1  0
  7  8  1  0
  8  9  1  0
  8 10  1  0
 10 11  2  0
 11 12  1  0
 12 13  2  0
 13 14  1  0
 14 15  2  0
  7 16  1  0
 16 17  1  0
 16 18  2  0
 16 19  2  0
  5 20  1  0
 20 21  1  0
 21 22  1  0
 21 23  2  0
 21 24  2  0
 20 25  1  0
 25 26  1  0
 26 27  1  0
 25  2  1  0
 15 10  1  0
  1 28  1  0
  1 29  1  0
  1 30  1  0
  2 31  1  0
  3 32  1  0
  3 33  1  0
  4 34  1  0
  4 35  1  0
  5 36  1  0
  6 37  1  0
  7 38  1  0
  8 39  1  0
  9 40  1  0
 11 41  1  0
 12 42  1  0
 13 43  1  0
 14 44  1  0
 15 45  1  0
 17 46  1  0
 17 47  1  0
 17 48  1  0
 22 49  1  0
 22 50  1  0
 22 51  1  0
 25 52  1  0
 26 53  1  0
 26 54  1  0
 27 55  1  0
M  END
>  <Energy>  (316) 
97.685890269357145

>  <compound_id>  (316) 
1138

>  <target_id>  (316) 
1

>  <reference_id>  (316) 
23

>  <inspiration_ids>  (316) 
[111, 23]

>  <energy_score>  (316) 
-30.907613030253884

>  <distance_score>  (316) 
2.3912407778007227

>  <path>  (316) 
/opt/xchem-fragalysis-2/maxwin/BulkDock/SCRATCH/505734/C1138-P23/C1138-P23.minimised.mol

>  <scratch_subdir>  (316) 
/opt/xchem-fragalysis-2/maxwin/BulkDock/SCRATCH/505734/C1138-P23

>  <fragmenstein_runtime>  (316) 
6.319592237472534

>  <fragmenstein_outcome>  (316) 
too moved

>  <fragmenstein_mode>  (316) 
expansion

>  <fragmenstein_error>  (316) 


$$$$
C3332-P111
     RDKit          3D

 36 37  0  0  0  0  0  0  0  0999 V2000
   16.4164   -2.3549   10.9543 C   0  0  0  0  0  0  0  0  0  0  0  0
   15.9052   -0.9335   10.9268 C   0  0  0  0  0  0  0  0  0  0  0  0
   16.3847   -0.0878   10.2847 O   0  0  0  0  0  0  0  0  0  0  0  0
   14.7513   -0.8789   11.9552 N   0  0  0  0  0  0  0  0  0  0  0  0
   14.0111    0.2484   12.4766 C   0  0  0  0  0  0  0  0  0  0  0  0
   12.9342   -0.0999   13.5023 C   0  0  0  0  0  0  0  0  0  0  0  0
   13.2584   -1.2471   14.3985 C   0  0  0  0  0  0  0  0  0  0  0  0
   14.4713   -1.2823   15.0518 N   0  0  0  0  0  0  0  0  0  0  0  0
   14.4107   -2.1605   16.0976 C   0  0  0  0  0  0  0  0  0  0  0  0
   15.3388   -2.3738   17.1151 C   0  0  0  0  0  0  0  0  0  0  0  0
   14.9783   -3.2888   18.0917 C   0  0  0  0  0  0  0  0  0  0  0  0
   13.7726   -3.9724   18.0144 C   0  0  0  0  0  0  0  0  0  0  0  0
   13.4925   -4.8771   18.9640 F   0  0  0  0  0  0  0  0  0  0  0  0
   12.8734   -3.7870   16.9696 C   0  0  0  0  0  0  0  0  0  0  0  0
   13.1854   -2.8234   16.0063 C   0  0  0  0  0  0  0  0  0  0  0  0
   12.4871   -2.2623   14.9132 C   0  0  0  0  0  0  0  0  0  0  0  0
   11.2295   -2.5794   14.5675 O   0  0  0  0  0  0  0  0  0  0  0  0
   12.6676    1.2675   14.6515 S   0  0  0  0  0  0  0  0  0  0  0  0
   11.9376    2.5326   13.6388 C   0  0  0  0  0  0  0  0  0  0  0  0
   11.6654    0.8408   15.6107 O   0  0  0  0  0  0  0  0  0  0  0  0
   13.9536    1.7488   15.1232 O   0  0  0  0  0  0  0  0  0  0  0  0
   16.9396   -2.5346   11.8974 H   0  0  0  0  0  0  0  0  0  0  0  0
   15.5879   -3.0580   10.8514 H   0  0  0  0  0  0  0  0  0  0  0  0
   17.1151   -2.5071   10.1274 H   0  0  0  0  0  0  0  0  0  0  0  0
   14.5321   -1.8225   12.2713 H   0  0  0  0  0  0  0  0  0  0  0  0
   13.5730    0.7805   11.6249 H   0  0  0  0  0  0  0  0  0  0  0  0
   14.7698    0.9255   12.8836 H   0  0  0  0  0  0  0  0  0  0  0  0
   11.9668   -0.2679   13.0274 H   0  0  0  0  0  0  0  0  0  0  0  0
   15.2245   -0.6153   14.9291 H   0  0  0  0  0  0  0  0  0  0  0  0
   16.2774   -1.8327   17.1659 H   0  0  0  0  0  0  0  0  0  0  0  0
   15.6434   -3.4875   18.9275 H   0  0  0  0  0  0  0  0  0  0  0  0
   11.9471   -4.3462   16.9280 H   0  0  0  0  0  0  0  0  0  0  0  0
   10.8328   -1.9969   13.8911 H   0  0  0  0  0  0  0  0  0  0  0  0
   11.0292    2.1366   13.1809 H   0  0  0  0  0  0  0  0  0  0  0  0
   11.6922    3.3810   14.2810 H   0  0  0  0  0  0  0  0  0  0  0  0
   12.6555    2.8390   12.8767 H   0  0  0  0  0  0  0  0  0  0  0  0
  1  2  1  0
  2  3  2  0
  2  4  1  0
  4  5  1  0
  5  6  1  0
  6  7  1  0
  7  8  1  0
  8  9  1  0
  9 10  2  0
 10 11  1  0
 11 12  2  0
 12 13  1  0
 12 14  1  0
 14 15  2  0
 15 16  1  0
 16 17  1  0
  6 18  1  0
 18 19  1  0
 18 20  2  0
 18 21  2  0
 16  7  2  0
 15  9  1  0
  1 22  1  0
  1 23  1  0
  1 24  1  0
  4 25  1  0
  5 26  1  0
  5 27  1  0
  6 28  1  0
  8 29  1  0
 10 30  1  0
 11 31  1  0
 14 32  1  0
 17 33  1  0
 19 34  1  0
 19 35  1  0
 19 36  1  0
M  END
>  <Energy>  (317) 
42.022028891916349

>  <compound_id>  (317) 
3332

>  <target_id>  (317) 
1

>  <reference_id>  (317) 
111

>  <inspiration_ids>  (317) 
[111, 29]

>  <energy_score>  (317) 
-13.705227080660876

>  <distance_score>  (317) 
1.8617163443262312

>  <path>  (317) 
/opt/xchem-fragalysis-2/maxwin/BulkDock/SCRATCH/505734/C3332-P111/C3332-P111.minimised.mol

>  <scratch_subdir>  (317) 
/opt/xchem-fragalysis-2/maxwin/BulkDock/SCRATCH/505734/C3332-P111

>  <fragmenstein_runtime>  (317) 
23.388160943984985

>  <fragmenstein_outcome>  (317) 
too moved

>  <fragmenstein_mode>  (317) 
expansion

>  <fragmenstein_error>  (317) 


$$$$
C3332-P29
     RDKit          3D

 36 37  0  0  0  0  0  0  0  0999 V2000
   17.4388   -3.3174   11.0649 C   0  0  0  0  0  0  0  0  0  0  0  0
   17.2319   -2.2686   12.1319 C   0  0  0  0  0  0  0  0  0  0  0  0
   17.9103   -2.1730   13.0749 O   0  0  0  0  0  0  0  0  0  0  0  0
   16.0226   -1.4156   11.6753 N   0  0  0  0  0  0  0  0  0  0  0  0
   15.4591   -0.2102   12.2386 C   0  0  0  0  0  0  0  0  0  0  0  0
   14.1352   -0.3917   12.9879 C   0  0  0  0  0  0  0  0  0  0  0  0
   14.0918   -1.4510   14.0431 C   0  0  0  0  0  0  0  0  0  0  0  0
   15.2302   -1.7724   14.7523 N   0  0  0  0  0  0  0  0  0  0  0  0
   14.9026   -2.4368   15.9041 C   0  0  0  0  0  0  0  0  0  0  0  0
   15.7338   -2.8574   16.9412 C   0  0  0  0  0  0  0  0  0  0  0  0
   15.1345   -3.5971   17.9513 C   0  0  0  0  0  0  0  0  0  0  0  0
   13.7869   -3.9214   17.8958 C   0  0  0  0  0  0  0  0  0  0  0  0
   13.2759   -4.6860   18.8683 F   0  0  0  0  0  0  0  0  0  0  0  0
   12.9631   -3.4821   16.8645 C   0  0  0  0  0  0  0  0  0  0  0  0
   13.5303   -2.6897   15.8578 C   0  0  0  0  0  0  0  0  0  0  0  0
   13.0384   -2.0781   14.6802 C   0  0  0  0  0  0  0  0  0  0  0  0
   11.7430   -2.0483   14.3317 O   0  0  0  0  0  0  0  0  0  0  0  0
   13.7893    1.1611   13.9015 S   0  0  0  0  0  0  0  0  0  0  0  0
   12.1933    1.6081   13.2441 C   0  0  0  0  0  0  0  0  0  0  0  0
   13.7304    0.8778   15.3214 O   0  0  0  0  0  0  0  0  0  0  0  0
   14.7057    2.1937   13.4598 O   0  0  0  0  0  0  0  0  0  0  0  0
   17.6693   -2.8383   10.1096 H   0  0  0  0  0  0  0  0  0  0  0  0
   18.2767   -3.9624   11.3447 H   0  0  0  0  0  0  0  0  0  0  0  0
   16.5422   -3.9316   10.9741 H   0  0  0  0  0  0  0  0  0  0  0  0
   15.7142   -1.7270   10.7606 H   0  0  0  0  0  0  0  0  0  0  0  0
   15.3311    0.4989   11.4131 H   0  0  0  0  0  0  0  0  0  0  0  0
   16.2306    0.1988   12.9015 H   0  0  0  0  0  0  0  0  0  0  0  0
   13.3274   -0.5506   12.2686 H   0  0  0  0  0  0  0  0  0  0  0  0
   16.1785   -1.4921   14.5256 H   0  0  0  0  0  0  0  0  0  0  0  0
   16.7969   -2.6430   16.9495 H   0  0  0  0  0  0  0  0  0  0  0  0
   15.7278   -3.9676   18.7825 H   0  0  0  0  0  0  0  0  0  0  0  0
   11.9263   -3.7818   16.8194 H   0  0  0  0  0  0  0  0  0  0  0  0
   11.5795   -1.7006   13.4408 H   0  0  0  0  0  0  0  0  0  0  0  0
   11.4815    0.8030   13.4284 H   0  0  0  0  0  0  0  0  0  0  0  0
   11.8732    2.5439   13.7051 H   0  0  0  0  0  0  0  0  0  0  0  0
   12.3017    1.7612   12.1673 H   0  0  0  0  0  0  0  0  0  0  0  0
  1  2  1  0
  2  3  2  0
  2  4  1  0
  4  5  1  0
  5  6  1  0
  6  7  1  0
  7  8  1  0
  8  9  1  0
  9 10  2  0
 10 11  1  0
 11 12  2  0
 12 13  1  0
 12 14  1  0
 14 15  2  0
 15 16  1  0
 16 17  1  0
  6 18  1  0
 18 19  1  0
 18 20  2  0
 18 21  2  0
 16  7  2  0
 15  9  1  0
  1 22  1  0
  1 23  1  0
  1 24  1  0
  4 25  1  0
  5 26  1  0
  5 27  1  0
  6 28  1  0
  8 29  1  0
 10 30  1  0
 11 31  1  0
 14 32  1  0
 17 33  1  0
 19 34  1  0
 19 35  1  0
 19 36  1  0
M  END
>  <Energy>  (318) 
44.030515749146403

>  <compound_id>  (318) 
3332

>  <target_id>  (318) 
1

>  <reference_id>  (318) 
29

>  <inspiration_ids>  (318) 
[111, 29]

>  <energy_score>  (318) 
-11.69674022342997

>  <distance_score>  (318) 
1.6871617272854702

>  <path>  (318) 
/opt/xchem-fragalysis-2/maxwin/BulkDock/SCRATCH/505734/C3332-P29/C3332-P29.minimised.mol

>  <scratch_subdir>  (318) 
/opt/xchem-fragalysis-2/maxwin/BulkDock/SCRATCH/505734/C3332-P29

>  <fragmenstein_runtime>  (318) 
31.81499147415161

>  <fragmenstein_outcome>  (318) 
too moved

>  <fragmenstein_mode>  (318) 
expansion

>  <fragmenstein_error>  (318) 


$$$$
C3333-P111
     RDKit          3D

 32 32  0  0  0  0  0  0  0  0999 V2000
   10.4644   -0.2304   14.9427 C   0  0  0  0  0  0  0  0  0  0  0  0
   11.5463   -1.0434   14.2500 C   0  0  0  0  0  0  0  0  0  0  0  0
   12.4969   -1.6732   15.2225 C   0  0  0  0  0  0  0  0  0  0  0  0
   12.1568   -2.9240   15.7777 C   0  0  0  0  0  0  0  0  0  0  0  0
   10.9693   -3.4918   15.4193 O   0  0  0  0  0  0  0  0  0  0  0  0
   12.9986   -3.5736   16.6603 C   0  0  0  0  0  0  0  0  0  0  0  0
   14.2092   -2.9768   16.9752 C   0  0  0  0  0  0  0  0  0  0  0  0
   15.0504   -3.6150   17.8010 F   0  0  0  0  0  0  0  0  0  0  0  0
   14.5648   -1.7386   16.4381 C   0  0  0  0  0  0  0  0  0  0  0  0
   15.7608   -1.2170   16.7489 F   0  0  0  0  0  0  0  0  0  0  0  0
   13.7082   -1.0466   15.5716 C   0  0  0  0  0  0  0  0  0  0  0  0
   14.0834    0.3171   15.0237 C   0  0  0  0  0  0  0  0  0  0  0  0
   14.3764    1.1700   16.1271 O   0  0  0  0  0  0  0  0  0  0  0  0
   15.2380    0.2314   14.0348 C   0  0  0  0  0  0  0  0  0  0  0  0
   15.2798    1.6724   12.9835 S   0  0  0  0  0  0  0  0  0  0  0  0
   13.9715    1.4087   11.8075 C   0  0  0  0  0  0  0  0  0  0  0  0
   16.5241    1.6442   12.2417 O   0  0  0  0  0  0  0  0  0  0  0  0
   14.9212    2.8221   13.7942 O   0  0  0  0  0  0  0  0  0  0  0  0
    9.8325    0.2725   14.2049 H   0  0  0  0  0  0  0  0  0  0  0  0
   10.8960    0.5389   15.5917 H   0  0  0  0  0  0  0  0  0  0  0  0
    9.8210   -0.8660   15.5594 H   0  0  0  0  0  0  0  0  0  0  0  0
   11.1507   -1.8676   13.6664 H   0  0  0  0  0  0  0  0  0  0  0  0
   12.0613   -0.4360   13.5023 H   0  0  0  0  0  0  0  0  0  0  0  0
   10.8820   -4.4063   15.7601 H   0  0  0  0  0  0  0  0  0  0  0  0
   12.7454   -4.5315   17.0963 H   0  0  0  0  0  0  0  0  0  0  0  0
   13.2205    0.7922   14.5583 H   0  0  0  0  0  0  0  0  0  0  0  0
   14.6315    2.0463   15.7707 H   0  0  0  0  0  0  0  0  0  0  0  0
   16.2031    0.2041   14.5523 H   0  0  0  0  0  0  0  0  0  0  0  0
   15.1674   -0.6367   13.3712 H   0  0  0  0  0  0  0  0  0  0  0  0
   14.0108    2.2148   11.0716 H   0  0  0  0  0  0  0  0  0  0  0  0
   14.1326    0.4484   11.3152 H   0  0  0  0  0  0  0  0  0  0  0  0
   13.0104    1.4280   12.3213 H   0  0  0  0  0  0  0  0  0  0  0  0
  1  2  1  0
  2  3  1  0
  3  4  2  0
  4  5  1  0
  4  6  1  0
  6  7  2  0
  7  8  1  0
  7  9  1  0
  9 10  1  0
  9 11  2  0
 11 12  1  0
 12 13  1  0
 12 14  1  0
 14 15  1  0
 15 16  1  0
 15 17  2  0
 15 18  2  0
 11  3  1  0
  1 19  1  0
  1 20  1  0
  1 21  1  0
  2 22  1  0
  2 23  1  0
  5 24  1  0
  6 25  1  0
 12 26  1  0
 13 27  1  0
 14 28  1  0
 14 29  1  0
 16 30  1  0
 16 31  1  0
 16 32  1  0
M  END
>  <Energy>  (319) 
8.0456280544953422

>  <compound_id>  (319) 
3333

>  <target_id>  (319) 
1

>  <reference_id>  (319) 
111

>  <inspiration_ids>  (319) 
[111, 31]

>  <energy_score>  (319) 
-34.607949060130466

>  <distance_score>  (319) 
0.5943164112499362

>  <path>  (319) 
/opt/xchem-fragalysis-2/maxwin/BulkDock/SCRATCH/505734/C3333-P111/C3333-P111.minimised.mol

>  <scratch_subdir>  (319) 
/opt/xchem-fragalysis-2/maxwin/BulkDock/SCRATCH/505734/C3333-P111

>  <fragmenstein_runtime>  (319) 
9.121105194091797

>  <fragmenstein_outcome>  (319) 
acceptable

>  <fragmenstein_mode>  (319) 
expansion

>  <fragmenstein_error>  (319) 


$$$$
C3333-P31
     RDKit          3D

 32 32  0  0  0  0  0  0  0  0999 V2000
   10.5370    0.2795   15.0989 C   0  0  0  0  0  0  0  0  0  0  0  0
   11.1383   -0.9634   14.4665 C   0  0  0  0  0  0  0  0  0  0  0  0
   12.3354   -1.6428   15.0796 C   0  0  0  0  0  0  0  0  0  0  0  0
   12.1351   -2.8672   15.7466 C   0  0  0  0  0  0  0  0  0  0  0  0
   10.9210   -3.4707   15.6589 O   0  0  0  0  0  0  0  0  0  0  0  0
   13.1363   -3.4955   16.4603 C   0  0  0  0  0  0  0  0  0  0  0  0
   14.4085   -2.9640   16.4077 C   0  0  0  0  0  0  0  0  0  0  0  0
   15.4037   -3.5927   17.0511 F   0  0  0  0  0  0  0  0  0  0  0  0
   14.6724   -1.8270   15.6450 C   0  0  0  0  0  0  0  0  0  0  0  0
   15.9448   -1.4108   15.5631 F   0  0  0  0  0  0  0  0  0  0  0  0
   13.6467   -1.1218   14.9848 C   0  0  0  0  0  0  0  0  0  0  0  0
   13.9085    0.1809   14.2501 C   0  0  0  0  0  0  0  0  0  0  0  0
   13.5269    1.2508   15.1169 O   0  0  0  0  0  0  0  0  0  0  0  0
   15.3134    0.3823   13.7052 C   0  0  0  0  0  0  0  0  0  0  0  0
   15.3748    1.8025   12.6312 S   0  0  0  0  0  0  0  0  0  0  0  0
   14.2976    1.4159   11.2707 C   0  0  0  0  0  0  0  0  0  0  0  0
   16.7190    1.8936   12.0994 O   0  0  0  0  0  0  0  0  0  0  0  0
   14.7847    2.9155   13.3562 O   0  0  0  0  0  0  0  0  0  0  0  0
    9.6536    0.5837   14.5280 H   0  0  0  0  0  0  0  0  0  0  0  0
   11.2132    1.1314   15.1057 H   0  0  0  0  0  0  0  0  0  0  0  0
   10.2000    0.0810   16.1181 H   0  0  0  0  0  0  0  0  0  0  0  0
   10.3238   -1.6821   14.5116 H   0  0  0  0  0  0  0  0  0  0  0  0
   11.3562   -0.7662   13.4152 H   0  0  0  0  0  0  0  0  0  0  0  0
   10.9613   -4.4100   15.9290 H   0  0  0  0  0  0  0  0  0  0  0  0
   12.9507   -4.4128   17.0032 H   0  0  0  0  0  0  0  0  0  0  0  0
   13.2263    0.2130   13.3995 H   0  0  0  0  0  0  0  0  0  0  0  0
   13.9110    2.0917   14.7913 H   0  0  0  0  0  0  0  0  0  0  0  0
   16.0286    0.6065   14.5040 H   0  0  0  0  0  0  0  0  0  0  0  0
   15.6671   -0.4770   13.1272 H   0  0  0  0  0  0  0  0  0  0  0  0
   14.4360    2.1823   10.5047 H   0  0  0  0  0  0  0  0  0  0  0  0
   14.5808    0.4405   10.8720 H   0  0  0  0  0  0  0  0  0  0  0  0
   13.2595    1.4214   11.6033 H   0  0  0  0  0  0  0  0  0  0  0  0
  1  2  1  0
  2  3  1  0
  3  4  2  0
  4  5  1  0
  4  6  1  0
  6  7  2  0
  7  8  1  0
  7  9  1  0
  9 10  1  0
  9 11  2  0
 11 12  1  0
 12 13  1  0
 12 14  1  0
 14 15  1  0
 15 16  1  0
 15 17  2  0
 15 18  2  0
 11  3  1  0
  1 19  1  0
  1 20  1  0
  1 21  1  0
  2 22  1  0
  2 23  1  0
  5 24  1  0
  6 25  1  0
 12 26  1  0
 13 27  1  0
 14 28  1  0
 14 29  1  0
 16 30  1  0
 16 31  1  0
 16 32  1  0
M  END
>  <Energy>  (320) 
13.739671197175108

>  <compound_id>  (320) 
3333

>  <target_id>  (320) 
1

>  <reference_id>  (320) 
31

>  <inspiration_ids>  (320) 
[111, 31]

>  <energy_score>  (320) 
-28.913905917451444

>  <distance_score>  (320) 
0.6473788576119054

>  <path>  (320) 
/opt/xchem-fragalysis-2/maxwin/BulkDock/SCRATCH/505734/C3333-P31/C3333-P31.minimised.mol

>  <scratch_subdir>  (320) 
/opt/xchem-fragalysis-2/maxwin/BulkDock/SCRATCH/505734/C3333-P31

>  <fragmenstein_runtime>  (320) 
6.321025848388672

>  <fragmenstein_outcome>  (320) 
acceptable

>  <fragmenstein_mode>  (320) 
expansion

>  <fragmenstein_error>  (320) 


$$$$
C3334-P111
     RDKit          3D

 42 42  0  0  0  0  0  0  0  0999 V2000
   13.5142   -3.3834   16.8286 C   0  0  0  0  0  0  0  0  0  0  0  0
   12.2822   -3.3639   15.9484 C   0  0  0  0  0  0  0  0  0  0  0  0
   11.6681   -2.0145   15.6118 C   0  0  0  0  0  0  0  0  0  0  0  0
   12.5070   -1.0798   14.7337 C   0  0  0  0  0  0  0  0  0  0  0  0
   13.7690   -0.4928   15.3335 C   0  0  0  0  0  0  0  0  0  0  0  0
   14.8523   -0.0993   14.6214 C   0  0  0  0  0  0  0  0  0  0  0  0
   14.8981   -0.0237   13.1309 C   0  0  0  0  0  0  0  0  0  0  0  0
   15.0881    1.6970   12.6367 S   0  0  0  0  0  0  0  0  0  0  0  0
   14.1108    1.7621   11.1591 C   0  0  0  0  0  0  0  0  0  0  0  0
   14.4400    2.5904   13.5794 O   0  0  0  0  0  0  0  0  0  0  0  0
   16.4666    1.9102   12.2338 O   0  0  0  0  0  0  0  0  0  0  0  0
   16.0426    0.3489   15.2177 O   0  0  0  0  0  0  0  0  0  0  0  0
   16.1753   -0.0761   16.5606 N   0  0  0  0  0  0  0  0  0  0  0  0
   17.4862    0.2963   17.0984 C   0  0  0  0  0  0  0  0  0  0  0  0
   18.0713   -0.8684   17.8995 C   0  0  0  0  0  0  0  0  0  0  0  0
   19.4715   -0.5546   18.4024 C   0  0  0  0  0  0  0  0  0  0  0  0
   19.4409    0.5253   19.3247 O   0  0  0  0  0  0  0  0  0  0  0  0
   15.0320   -0.1036   17.3265 C   0  0  0  0  0  0  0  0  0  0  0  0
   13.8350   -0.2795   16.7644 C   0  0  0  0  0  0  0  0  0  0  0  0
   13.7501   -4.4137   17.0990 H   0  0  0  0  0  0  0  0  0  0  0  0
   13.3519   -2.8385   17.7610 H   0  0  0  0  0  0  0  0  0  0  0  0
   14.3924   -2.9912   16.3114 H   0  0  0  0  0  0  0  0  0  0  0  0
   11.5181   -3.9891   16.4196 H   0  0  0  0  0  0  0  0  0  0  0  0
   12.5175   -3.8279   15.0003 H   0  0  0  0  0  0  0  0  0  0  0  0
   10.7300   -2.2088   15.0752 H   0  0  0  0  0  0  0  0  0  0  0  0
   11.3795   -1.4885   16.5171 H   0  0  0  0  0  0  0  0  0  0  0  0
   12.7450   -1.6326   13.8175 H   0  0  0  0  0  0  0  0  0  0  0  0
   11.8657   -0.2392   14.4363 H   0  0  0  0  0  0  0  0  0  0  0  0
   13.9858   -0.3855   12.6540 H   0  0  0  0  0  0  0  0  0  0  0  0
   15.7418   -0.5889   12.7243 H   0  0  0  0  0  0  0  0  0  0  0  0
   14.5121    1.0451   10.4410 H   0  0  0  0  0  0  0  0  0  0  0  0
   13.0737    1.5279   11.4066 H   0  0  0  0  0  0  0  0  0  0  0  0
   14.1756    2.7728   10.7503 H   0  0  0  0  0  0  0  0  0  0  0  0
   17.3931    1.1968   17.7172 H   0  0  0  0  0  0  0  0  0  0  0  0
   18.1698    0.5413   16.2757 H   0  0  0  0  0  0  0  0  0  0  0  0
   18.1047   -1.7677   17.2727 H   0  0  0  0  0  0  0  0  0  0  0  0
   17.4189   -1.0903   18.7526 H   0  0  0  0  0  0  0  0  0  0  0  0
   19.9049   -1.4250   18.9055 H   0  0  0  0  0  0  0  0  0  0  0  0
   20.1336   -0.2800   17.5752 H   0  0  0  0  0  0  0  0  0  0  0  0
   18.9800    0.2165   20.1245 H   0  0  0  0  0  0  0  0  0  0  0  0
   15.1653    0.0331   18.3938 H   0  0  0  0  0  0  0  0  0  0  0  0
   12.9415   -0.2581   17.3609 H   0  0  0  0  0  0  0  0  0  0  0  0
  1  2  1  0
  2  3  1  0
  3  4  1  0
  4  5  1  0
  5  6  2  0
  6  7  1  0
  7  8  1  0
  8  9  1  0
  8 10  2  0
  8 11  2  0
  6 12  1  0
 12 13  1  0
 13 14  1  0
 14 15  1  0
 15 16  1  0
 16 17  1  0
 13 18  1  0
 18 19  2  0
 19  5  1  0
  1 20  1  0
  1 21  1  0
  1 22  1  0
  2 23  1  0
  2 24  1  0
  3 25  1  0
  3 26  1  0
  4 27  1  0
  4 28  1  0
  7 29  1  0
  7 30  1  0
  9 31  1  0
  9 32  1  0
  9 33  1  0
 14 34  1  0
 14 35  1  0
 15 36  1  0
 15 37  1  0
 16 38  1  0
 16 39  1  0
 17 40  1  0
 18 41  1  0
 19 42  1  0
M  END
>  <Energy>  (321) 
49.905084827156813

>  <compound_id>  (321) 
3334

>  <target_id>  (321) 
1

>  <reference_id>  (321) 
111

>  <inspiration_ids>  (321) 
[111, 36]

>  <energy_score>  (321) 
-21.120827296806908

>  <distance_score>  (321) 
1.5123230444587046

>  <path>  (321) 
/opt/xchem-fragalysis-2/maxwin/BulkDock/SCRATCH/505734/C3334-P111/C3334-P111.minimised.mol

>  <scratch_subdir>  (321) 
/opt/xchem-fragalysis-2/maxwin/BulkDock/SCRATCH/505734/C3334-P111

>  <fragmenstein_runtime>  (321) 
3.088282823562622

>  <fragmenstein_outcome>  (321) 
too moved

>  <fragmenstein_mode>  (321) 
expansion

>  <fragmenstein_error>  (321) 


$$$$
C3334-P36
     RDKit          3D

 42 42  0  0  0  0  0  0  0  0999 V2000
   13.8481   -3.3260   17.2696 C   0  0  0  0  0  0  0  0  0  0  0  0
   12.7066   -3.6829   16.3438 C   0  0  0  0  0  0  0  0  0  0  0  0
   11.9739   -2.5778   15.5713 C   0  0  0  0  0  0  0  0  0  0  0  0
   12.7816   -1.5861   14.7027 C   0  0  0  0  0  0  0  0  0  0  0  0
   13.7474   -0.6460   15.3946 C   0  0  0  0  0  0  0  0  0  0  0  0
   14.8536   -0.0759   14.8577 C   0  0  0  0  0  0  0  0  0  0  0  0
   15.2680   -0.1282   13.4261 C   0  0  0  0  0  0  0  0  0  0  0  0
   15.1400    1.5103   12.6788 S   0  0  0  0  0  0  0  0  0  0  0  0
   13.5090    1.5105   11.9855 C   0  0  0  0  0  0  0  0  0  0  0  0
   15.1740    2.5728   13.6656 O   0  0  0  0  0  0  0  0  0  0  0  0
   16.0660    1.5405   11.5590 O   0  0  0  0  0  0  0  0  0  0  0  0
   15.7795    0.6540   15.6288 O   0  0  0  0  0  0  0  0  0  0  0  0
   15.7289    0.3189   17.0001 N   0  0  0  0  0  0  0  0  0  0  0  0
   16.8143    0.9769   17.7334 C   0  0  0  0  0  0  0  0  0  0  0  0
   17.3872    0.0243   18.7850 C   0  0  0  0  0  0  0  0  0  0  0  0
   18.5775    0.6362   19.5066 C   0  0  0  0  0  0  0  0  0  0  0  0
   18.1785    1.7785   20.2505 O   0  0  0  0  0  0  0  0  0  0  0  0
   14.4730    0.1398   17.5330 C   0  0  0  0  0  0  0  0  0  0  0  0
   13.4711   -0.3002   16.7695 C   0  0  0  0  0  0  0  0  0  0  0  0
   14.2253   -4.2368   17.7490 H   0  0  0  0  0  0  0  0  0  0  0  0
   13.5254   -2.6640   18.0727 H   0  0  0  0  0  0  0  0  0  0  0  0
   14.6907   -2.8876   16.7298 H   0  0  0  0  0  0  0  0  0  0  0  0
   11.9580   -4.2373   16.9197 H   0  0  0  0  0  0  0  0  0  0  0  0
   13.1133   -4.3994   15.6445 H   0  0  0  0  0  0  0  0  0  0  0  0
   11.2632   -3.0802   14.9001 H   0  0  0  0  0  0  0  0  0  0  0  0
   11.3431   -2.0158   16.2652 H   0  0  0  0  0  0  0  0  0  0  0  0
   13.3159   -2.1662   13.9439 H   0  0  0  0  0  0  0  0  0  0  0  0
   12.0562   -0.9646   14.1603 H   0  0  0  0  0  0  0  0  0  0  0  0
   14.6852   -0.8166   12.8100 H   0  0  0  0  0  0  0  0  0  0  0  0
   16.3186   -0.4294   13.3508 H   0  0  0  0  0  0  0  0  0  0  0  0
   13.4382    0.6945   11.2679 H   0  0  0  0  0  0  0  0  0  0  0  0
   12.7802    1.3871   12.7882 H   0  0  0  0  0  0  0  0  0  0  0  0
   13.3503    2.4654   11.4801 H   0  0  0  0  0  0  0  0  0  0  0  0
   16.4470    1.9022   18.1930 H   0  0  0  0  0  0  0  0  0  0  0  0
   17.6140    1.2582   17.0366 H   0  0  0  0  0  0  0  0  0  0  0  0
   17.6970   -0.9119   18.3051 H   0  0  0  0  0  0  0  0  0  0  0  0
   16.6086   -0.2267   19.5153 H   0  0  0  0  0  0  0  0  0  0  0  0
   19.0223   -0.0865   20.1982 H   0  0  0  0  0  0  0  0  0  0  0  0
   19.3521    0.9429   18.7967 H   0  0  0  0  0  0  0  0  0  0  0  0
   17.6008    1.4737   20.9720 H   0  0  0  0  0  0  0  0  0  0  0  0
   14.3552    0.3825   18.5828 H   0  0  0  0  0  0  0  0  0  0  0  0
   12.4770   -0.4196   17.1549 H   0  0  0  0  0  0  0  0  0  0  0  0
  1  2  1  0
  2  3  1  0
  3  4  1  0
  4  5  1  0
  5  6  2  0
  6  7  1  0
  7  8  1  0
  8  9  1  0
  8 10  2  0
  8 11  2  0
  6 12  1  0
 12 13  1  0
 13 14  1  0
 14 15  1  0
 15 16  1  0
 16 17  1  0
 13 18  1  0
 18 19  2  0
 19  5  1  0
  1 20  1  0
  1 21  1  0
  1 22  1  0
  2 23  1  0
  2 24  1  0
  3 25  1  0
  3 26  1  0
  4 27  1  0
  4 28  1  0
  7 29  1  0
  7 30  1  0
  9 31  1  0
  9 32  1  0
  9 33  1  0
 14 34  1  0
 14 35  1  0
 15 36  1  0
 15 37  1  0
 16 38  1  0
 16 39  1  0
 17 40  1  0
 18 41  1  0
 19 42  1  0
M  END
>  <Energy>  (322) 
52.292081927487374

>  <compound_id>  (322) 
3334

>  <target_id>  (322) 
1

>  <reference_id>  (322) 
36

>  <inspiration_ids>  (322) 
[111, 36]

>  <energy_score>  (322) 
-18.733830196475537

>  <distance_score>  (322) 
1.368477758798588

>  <path>  (322) 
/opt/xchem-fragalysis-2/maxwin/BulkDock/SCRATCH/505734/C3334-P36/C3334-P36.minimised.mol

>  <scratch_subdir>  (322) 
/opt/xchem-fragalysis-2/maxwin/BulkDock/SCRATCH/505734/C3334-P36

>  <fragmenstein_runtime>  (322) 
3.089064836502075

>  <fragmenstein_outcome>  (322) 
too moved

>  <fragmenstein_mode>  (322) 
expansion

>  <fragmenstein_error>  (322) 


$$$$
C3335-P111
     RDKit          3D

 47 48  0  0  0  0  0  0  0  0999 V2000
   16.3868    1.3528   11.9580 C   0  0  0  0  0  0  0  0  0  0  0  0
   14.8467    1.6587   12.7828 S   0  0  0  0  0  0  0  0  0  0  0  0
   14.8892    3.0414   13.2089 O   0  0  0  0  0  0  0  0  0  0  0  0
   13.7948    1.1975   11.8954 O   0  0  0  0  0  0  0  0  0  0  0  0
   14.9568    0.5549   14.1996 C   0  0  0  0  0  0  0  0  0  0  0  0
   13.6417    0.4316   14.9776 C   0  0  0  0  0  0  0  0  0  0  0  0
   13.3800   -1.0072   15.4288 C   0  0  0  0  0  0  0  0  0  0  0  0
   14.3090   -1.7406   16.1801 C   0  0  0  0  0  0  0  0  0  0  0  0
   13.9930   -3.0159   16.6505 C   0  0  0  0  0  0  0  0  0  0  0  0
   12.7618   -3.5876   16.3428 C   0  0  0  0  0  0  0  0  0  0  0  0
   11.8539   -2.8972   15.5450 C   0  0  0  0  0  0  0  0  0  0  0  0
   12.1537   -1.6114   15.1009 C   0  0  0  0  0  0  0  0  0  0  0  0
   13.3909    1.4413   16.1629 C   0  0  0  0  0  0  0  0  0  0  0  0
   14.3247    1.3886   17.4068 C   0  0  0  0  0  0  0  0  0  0  0  0
   15.6453    2.1868   17.3172 C   0  0  0  0  0  0  0  0  0  0  0  0
   16.1517    2.6211   18.7075 C   0  0  0  0  0  0  0  0  0  0  0  0
   15.3090    3.6184   19.2725 O   0  0  0  0  0  0  0  0  0  0  0  0
   15.4928    3.4116   16.4174 C   0  0  0  0  0  0  0  0  0  0  0  0
   14.0367    3.8383   16.2926 C   0  0  0  0  0  0  0  0  0  0  0  0
   13.2234    2.8087   15.6401 N   0  0  0  0  0  0  0  0  0  0  0  0
   11.8356    3.2432   15.5961 C   0  0  0  0  0  0  0  0  0  0  0  0
   11.1120    2.4585   14.6730 O   0  0  0  0  0  0  0  0  0  0  0  0
   16.4317    0.3013   11.6683 H   0  0  0  0  0  0  0  0  0  0  0  0
   17.2057    1.6031   12.6349 H   0  0  0  0  0  0  0  0  0  0  0  0
   16.4303    1.9857   11.0691 H   0  0  0  0  0  0  0  0  0  0  0  0
   15.7899    0.8852   14.8201 H   0  0  0  0  0  0  0  0  0  0  0  0
   15.2314   -0.4130   13.7616 H   0  0  0  0  0  0  0  0  0  0  0  0
   12.8471    0.6297   14.2469 H   0  0  0  0  0  0  0  0  0  0  0  0
   15.2827   -1.3249   16.4257 H   0  0  0  0  0  0  0  0  0  0  0  0
   14.7105   -3.5676   17.2518 H   0  0  0  0  0  0  0  0  0  0  0  0
   12.5184   -4.5857   16.6975 H   0  0  0  0  0  0  0  0  0  0  0  0
   10.9137   -3.3617   15.2585 H   0  0  0  0  0  0  0  0  0  0  0  0
   11.4178   -1.0867   14.4897 H   0  0  0  0  0  0  0  0  0  0  0  0
   12.4223    1.1257   16.5759 H   0  0  0  0  0  0  0  0  0  0  0  0
   14.5399    0.3641   17.7168 H   0  0  0  0  0  0  0  0  0  0  0  0
   13.7407    1.8003   18.2437 H   0  0  0  0  0  0  0  0  0  0  0  0
   16.4152    1.5317   16.8917 H   0  0  0  0  0  0  0  0  0  0  0  0
   17.1630    3.0346   18.6307 H   0  0  0  0  0  0  0  0  0  0  0  0
   16.1822    1.7619   19.3861 H   0  0  0  0  0  0  0  0  0  0  0  0
   15.6289    3.7856   20.1764 H   0  0  0  0  0  0  0  0  0  0  0  0
   16.0924    4.2540   16.7839 H   0  0  0  0  0  0  0  0  0  0  0  0
   15.9065    3.1836   15.4314 H   0  0  0  0  0  0  0  0  0  0  0  0
   14.0071    4.7539   15.6886 H   0  0  0  0  0  0  0  0  0  0  0  0
   13.6302    4.0968   17.2786 H   0  0  0  0  0  0  0  0  0  0  0  0
   11.7557    4.2810   15.2528 H   0  0  0  0  0  0  0  0  0  0  0  0
   11.3487    3.1815   16.5763 H   0  0  0  0  0  0  0  0  0  0  0  0
   11.6647    2.4832   13.8710 H   0  0  0  0  0  0  0  0  0  0  0  0
  1  2  1  0
  2  3  2  0
  2  4  2  0
  2  5  1  0
  5  6  1  0
  6  7  1  0
  7  8  2  0
  8  9  1  0
  9 10  2  0
 10 11  1  0
 11 12  2  0
  6 13  1  0
 13 14  1  0
 14 15  1  0
 15 16  1  0
 16 17  1  0
 15 18  1  0
 18 19  1  0
 19 20  1  0
 20 21  1  0
 21 22  1  0
 12  7  1  0
 20 13  1  0
  1 23  1  0
  1 24  1  0
  1 25  1  0
  5 26  1  0
  5 27  1  0
  6 28  1  0
  8 29  1  0
  9 30  1  0
 10 31  1  0
 11 32  1  0
 12 33  1  0
 13 34  1  0
 14 35  1  0
 14 36  1  0
 15 37  1  0
 16 38  1  0
 16 39  1  0
 17 40  1  0
 18 41  1  0
 18 42  1  0
 19 43  1  0
 19 44  1  0
 21 45  1  0
 21 46  1  0
 22 47  1  0
M  END
>  <Energy>  (323) 
10.604942341728218

>  <compound_id>  (323) 
3335

>  <target_id>  (323) 
1

>  <reference_id>  (323) 
111

>  <inspiration_ids>  (323) 
[111, 55]

>  <energy_score>  (323) 
-47.36130491159864

>  <distance_score>  (323) 
0.86627993511344

>  <path>  (323) 
/opt/xchem-fragalysis-2/maxwin/BulkDock/SCRATCH/505734/C3335-P111/C3335-P111.minimised.mol

>  <scratch_subdir>  (323) 
/opt/xchem-fragalysis-2/maxwin/BulkDock/SCRATCH/505734/C3335-P111

>  <fragmenstein_runtime>  (323) 
66.54873323440552

>  <fragmenstein_outcome>  (323) 
acceptable

>  <fragmenstein_mode>  (323) 
expansion

>  <fragmenstein_error>  (323) 


$$$$
C3335-P55
     RDKit          3D

 47 48  0  0  0  0  0  0  0  0999 V2000
   16.4406    1.4637   12.0380 C   0  0  0  0  0  0  0  0  0  0  0  0
   14.8310    1.6258   12.7659 S   0  0  0  0  0  0  0  0  0  0  0  0
   14.7029    3.0125   13.1651 O   0  0  0  0  0  0  0  0  0  0  0  0
   13.8863    1.0455   11.8297 O   0  0  0  0  0  0  0  0  0  0  0  0
   14.9629    0.5536   14.2071 C   0  0  0  0  0  0  0  0  0  0  0  0
   13.6472    0.4229   14.9865 C   0  0  0  0  0  0  0  0  0  0  0  0
   13.3792   -1.0119   15.4398 C   0  0  0  0  0  0  0  0  0  0  0  0
   14.3013   -1.7450   16.1999 C   0  0  0  0  0  0  0  0  0  0  0  0
   13.9769   -3.0141   16.6810 C   0  0  0  0  0  0  0  0  0  0  0  0
   12.7446   -3.5823   16.3728 C   0  0  0  0  0  0  0  0  0  0  0  0
   11.8467   -2.8967   15.5601 C   0  0  0  0  0  0  0  0  0  0  0  0
   12.1548   -1.6161   15.1059 C   0  0  0  0  0  0  0  0  0  0  0  0
   13.4208    1.4383   16.1732 C   0  0  0  0  0  0  0  0  0  0  0  0
   14.3874    1.3966   17.3939 C   0  0  0  0  0  0  0  0  0  0  0  0
   15.6710    2.2570   17.2942 C   0  0  0  0  0  0  0  0  0  0  0  0
   16.2179    2.6426   18.6827 C   0  0  0  0  0  0  0  0  0  0  0  0
   15.3666    3.5822   19.3259 O   0  0  0  0  0  0  0  0  0  0  0  0
   15.4363    3.5218   16.4662 C   0  0  0  0  0  0  0  0  0  0  0  0
   13.9547    3.8547   16.3537 C   0  0  0  0  0  0  0  0  0  0  0  0
   13.2855    2.7858   15.6186 N   0  0  0  0  0  0  0  0  0  0  0  0
   11.9299    3.1449   15.2566 C   0  0  0  0  0  0  0  0  0  0  0  0
   11.9883    4.0825   14.2044 O   0  0  0  0  0  0  0  0  0  0  0  0
   16.6101    0.4163   11.7818 H   0  0  0  0  0  0  0  0  0  0  0  0
   17.1879    1.8132   12.7528 H   0  0  0  0  0  0  0  0  0  0  0  0
   16.4711    2.0778   11.1355 H   0  0  0  0  0  0  0  0  0  0  0  0
   15.7812    0.9285   14.8218 H   0  0  0  0  0  0  0  0  0  0  0  0
   15.2677   -0.4162   13.7948 H   0  0  0  0  0  0  0  0  0  0  0  0
   12.8484    0.6311   14.2603 H   0  0  0  0  0  0  0  0  0  0  0  0
   15.2786   -1.3357   16.4418 H   0  0  0  0  0  0  0  0  0  0  0  0
   14.6900   -3.5652   17.2882 H   0  0  0  0  0  0  0  0  0  0  0  0
   12.4962   -4.5764   16.7343 H   0  0  0  0  0  0  0  0  0  0  0  0
   10.9092   -3.3626   15.2663 H   0  0  0  0  0  0  0  0  0  0  0  0
   11.4277   -1.1000   14.4778 H   0  0  0  0  0  0  0  0  0  0  0  0
   12.4519    1.1596   16.6118 H   0  0  0  0  0  0  0  0  0  0  0  0
   14.6559    0.3774   17.6757 H   0  0  0  0  0  0  0  0  0  0  0  0
   13.8083    1.7658   18.2537 H   0  0  0  0  0  0  0  0  0  0  0  0
   16.4493    1.6573   16.8071 H   0  0  0  0  0  0  0  0  0  0  0  0
   17.2108    3.0949   18.5852 H   0  0  0  0  0  0  0  0  0  0  0  0
   16.3055    1.7552   19.3186 H   0  0  0  0  0  0  0  0  0  0  0  0
   15.7449    3.7629   20.2034 H   0  0  0  0  0  0  0  0  0  0  0  0
   15.9778    4.3816   16.8794 H   0  0  0  0  0  0  0  0  0  0  0  0
   15.8600    3.3758   15.4655 H   0  0  0  0  0  0  0  0  0  0  0  0
   13.8708    4.8030   15.8091 H   0  0  0  0  0  0  0  0  0  0  0  0
   13.5020    4.0131   17.3401 H   0  0  0  0  0  0  0  0  0  0  0  0
   11.3621    3.5632   16.0951 H   0  0  0  0  0  0  0  0  0  0  0  0
   11.3663    2.2881   14.8727 H   0  0  0  0  0  0  0  0  0  0  0  0
   12.8580    3.8930   13.7942 H   0  0  0  0  0  0  0  0  0  0  0  0
  1  2  1  0
  2  3  2  0
  2  4  2  0
  2  5  1  0
  5  6  1  0
  6  7  1  0
  7  8  2  0
  8  9  1  0
  9 10  2  0
 10 11  1  0
 11 12  2  0
  6 13  1  0
 13 14  1  0
 14 15  1  0
 15 16  1  0
 16 17  1  0
 15 18  1  0
 18 19  1  0
 19 20  1  0
 20 21  1  0
 21 22  1  0
 12  7  1  0
 20 13  1  0
  1 23  1  0
  1 24  1  0
  1 25  1  0
  5 26  1  0
  5 27  1  0
  6 28  1  0
  8 29  1  0
  9 30  1  0
 10 31  1  0
 11 32  1  0
 12 33  1  0
 13 34  1  0
 14 35  1  0
 14 36  1  0
 15 37  1  0
 16 38  1  0
 16 39  1  0
 17 40  1  0
 18 41  1  0
 18 42  1  0
 19 43  1  0
 19 44  1  0
 21 45  1  0
 21 46  1  0
 22 47  1  0
M  END
>  <Energy>  (324) 
9.1602067114976542

>  <compound_id>  (324) 
3335

>  <target_id>  (324) 
1

>  <reference_id>  (324) 
55

>  <inspiration_ids>  (324) 
[111, 55]

>  <energy_score>  (324) 
-48.806040541827784

>  <distance_score>  (324) 
0.8832375222202418

>  <path>  (324) 
/opt/xchem-fragalysis-2/maxwin/BulkDock/SCRATCH/505734/C3335-P55/C3335-P55.minimised.mol

>  <scratch_subdir>  (324) 
/opt/xchem-fragalysis-2/maxwin/BulkDock/SCRATCH/505734/C3335-P55

>  <fragmenstein_runtime>  (324) 
73.42549109458923

>  <fragmenstein_outcome>  (324) 
acceptable

>  <fragmenstein_mode>  (324) 
expansion

>  <fragmenstein_error>  (324) 


$$$$
C3336-P111
     RDKit          3D

 25 25  0  0  0  0  0  0  0  0999 V2000
   16.4304    1.7012   11.9078 C   0  0  0  0  0  0  0  0  0  0  0  0
   14.8635    1.7029   12.7402 S   0  0  0  0  0  0  0  0  0  0  0  0
   14.7706    2.9493   13.4730 O   0  0  0  0  0  0  0  0  0  0  0  0
   13.8533    1.3413   11.7621 O   0  0  0  0  0  0  0  0  0  0  0  0
   15.0397    0.3470   13.8859 C   0  0  0  0  0  0  0  0  0  0  0  0
   13.8525    0.2945   14.8408 C   0  0  0  0  0  0  0  0  0  0  0  0
   14.1006    1.1699   15.9401 O   0  0  0  0  0  0  0  0  0  0  0  0
   13.6319   -1.0871   15.4335 C   0  0  0  0  0  0  0  0  0  0  0  0
   14.7283   -1.7967   15.9609 C   0  0  0  0  0  0  0  0  0  0  0  0
   14.5762   -3.0737   16.5036 C   0  0  0  0  0  0  0  0  0  0  0  0
   13.3289   -3.6808   16.5033 C   0  0  0  0  0  0  0  0  0  0  0  0
   12.2310   -3.0009   15.9996 C   0  0  0  0  0  0  0  0  0  0  0  0
   12.3698   -1.6924   15.5303 C   0  0  0  0  0  0  0  0  0  0  0  0
   10.5998   -0.6725   15.2197 I   0  0  0  0  0  0  0  0  0  0  0  0
   16.4193    2.4956   11.1586 H   0  0  0  0  0  0  0  0  0  0  0  0
   16.5718    0.7334   11.4233 H   0  0  0  0  0  0  0  0  0  0  0  0
   17.2198    1.8882   12.6381 H   0  0  0  0  0  0  0  0  0  0  0  0
   15.1100   -0.5558   13.2692 H   0  0  0  0  0  0  0  0  0  0  0  0
   15.9825    0.5071   14.4194 H   0  0  0  0  0  0  0  0  0  0  0  0
   12.9658    0.6580   14.3190 H   0  0  0  0  0  0  0  0  0  0  0  0
   13.3192    1.1378   16.5177 H   0  0  0  0  0  0  0  0  0  0  0  0
   15.7206   -1.3485   15.9741 H   0  0  0  0  0  0  0  0  0  0  0  0
   15.4381   -3.5977   16.9096 H   0  0  0  0  0  0  0  0  0  0  0  0
   13.1954   -4.6819   16.8959 H   0  0  0  0  0  0  0  0  0  0  0  0
   11.2675   -3.5023   16.0111 H   0  0  0  0  0  0  0  0  0  0  0  0
  1  2  1  0
  2  3  2  0
  2  4  2  0
  2  5  1  0
  5  6  1  0
  6  7  1  0
  6  8  1  0
  8  9  2  0
  9 10  1  0
 10 11  2  0
 11 12  1  0
 12 13  2  0
 13 14  1  0
 13  8  1  0
  1 15  1  0
  1 16  1  0
  1 17  1  0
  5 18  1  0
  5 19  1  0
  6 20  1  0
  7 21  1  0
  9 22  1  0
 10 23  1  0
 11 24  1  0
 12 25  1  0
M  END
>  <Energy>  (325) 
17.607527257506291

>  <compound_id>  (325) 
3336

>  <target_id>  (325) 
1

>  <reference_id>  (325) 
111

>  <inspiration_ids>  (325) 
[111, 60]

>  <energy_score>  (325) 
-40.026059727276674

>  <distance_score>  (325) 
1.0259552176733693

>  <path>  (325) 
/opt/xchem-fragalysis-2/maxwin/BulkDock/SCRATCH/505734/C3336-P111/C3336-P111.minimised.mol

>  <scratch_subdir>  (325) 
/opt/xchem-fragalysis-2/maxwin/BulkDock/SCRATCH/505734/C3336-P111

>  <fragmenstein_runtime>  (325) 
29.500473499298096

>  <fragmenstein_outcome>  (325) 
too moved

>  <fragmenstein_mode>  (325) 
expansion

>  <fragmenstein_error>  (325) 


$$$$
C3336-P60
     RDKit          3D

 25 25  0  0  0  0  0  0  0  0999 V2000
   16.4274    1.7530   12.0000 C   0  0  0  0  0  0  0  0  0  0  0  0
   14.8331    1.6605   12.7754 S   0  0  0  0  0  0  0  0  0  0  0  0
   14.6874    2.8222   13.6334 O   0  0  0  0  0  0  0  0  0  0  0  0
   13.8543    1.3727   11.7449 O   0  0  0  0  0  0  0  0  0  0  0  0
   14.9809    0.2306   13.8244 C   0  0  0  0  0  0  0  0  0  0  0  0
   13.8164    0.1927   14.8114 C   0  0  0  0  0  0  0  0  0  0  0  0
   14.0385    1.1256   15.8709 O   0  0  0  0  0  0  0  0  0  0  0  0
   13.6600   -1.1713   15.4647 C   0  0  0  0  0  0  0  0  0  0  0  0
   14.7892   -1.8111   16.0129 C   0  0  0  0  0  0  0  0  0  0  0  0
   14.7034   -3.0797   16.5921 C   0  0  0  0  0  0  0  0  0  0  0  0
   13.4885   -3.7481   16.6238 C   0  0  0  0  0  0  0  0  0  0  0  0
   12.3554   -3.1317   16.1123 C   0  0  0  0  0  0  0  0  0  0  0  0
   12.4296   -1.8364   15.5856 C   0  0  0  0  0  0  0  0  0  0  0  0
   10.6119   -0.9397   15.1807 I   0  0  0  0  0  0  0  0  0  0  0  0
   16.4271    2.6092   11.3224 H   0  0  0  0  0  0  0  0  0  0  0  0
   16.5998    0.8325   11.4393 H   0  0  0  0  0  0  0  0  0  0  0  0
   17.1889    1.8868   12.7704 H   0  0  0  0  0  0  0  0  0  0  0  0
   14.9973   -0.6438   13.1657 H   0  0  0  0  0  0  0  0  0  0  0  0
   15.9411    0.3261   14.3419 H   0  0  0  0  0  0  0  0  0  0  0  0
   12.9049    0.4933   14.2921 H   0  0  0  0  0  0  0  0  0  0  0  0
   14.0109    2.0240   15.4808 H   0  0  0  0  0  0  0  0  0  0  0  0
   15.7567   -1.3132   16.0151 H   0  0  0  0  0  0  0  0  0  0  0  0
   15.5927   -3.5463   17.0086 H   0  0  0  0  0  0  0  0  0  0  0  0
   13.4137   -4.7421   17.0529 H   0  0  0  0  0  0  0  0  0  0  0  0
   11.4155   -3.6745   16.1547 H   0  0  0  0  0  0  0  0  0  0  0  0
  1  2  1  0
  2  3  2  0
  2  4  2  0
  2  5  1  0
  5  6  1  0
  6  7  1  0
  6  8  1  0
  8  9  2  0
  9 10  1  0
 10 11  2  0
 11 12  1  0
 12 13  2  0
 13 14  1  0
 13  8  1  0
  1 15  1  0
  1 16  1  0
  1 17  1  0
  5 18  1  0
  5 19  1  0
  6 20  1  0
  7 21  1  0
  9 22  1  0
 10 23  1  0
 11 24  1  0
 12 25  1  0
M  END
>  <Energy>  (326) 
14.690303675895363

>  <compound_id>  (326) 
3336

>  <target_id>  (326) 
1

>  <reference_id>  (326) 
60

>  <inspiration_ids>  (326) 
[111, 60]

>  <energy_score>  (326) 
-42.94328330888759

>  <distance_score>  (326) 
1.0180971294183687

>  <path>  (326) 
/opt/xchem-fragalysis-2/maxwin/BulkDock/SCRATCH/505734/C3336-P60/C3336-P60.minimised.mol

>  <scratch_subdir>  (326) 
/opt/xchem-fragalysis-2/maxwin/BulkDock/SCRATCH/505734/C3336-P60

>  <fragmenstein_runtime>  (326) 
29.291077613830566

>  <fragmenstein_outcome>  (326) 
too moved

>  <fragmenstein_mode>  (326) 
expansion

>  <fragmenstein_error>  (326) 


$$$$
C3337-P111
     RDKit          3D

 45 45  0  0  0  0  0  0  0  0999 V2000
   18.5727   -2.8366   15.8211 C   0  0  0  0  0  0  0  0  0  0  0  0
   17.5489   -2.8501   16.9518 C   0  0  0  0  0  0  0  0  0  0  0  0
   17.6499   -4.1377   17.7990 C   0  0  0  0  0  0  0  0  0  0  0  0
   16.4103   -4.4258   18.4647 O   0  0  0  0  0  0  0  0  0  0  0  0
   17.6514   -1.5704   17.8408 C   0  0  0  0  0  0  0  0  0  0  0  0
   17.2294   -0.3439   17.2292 O   0  0  0  0  0  0  0  0  0  0  0  0
   16.2023   -2.8443   16.4923 N   0  0  0  0  0  0  0  0  0  0  0  0
   15.4978   -1.9149   15.5255 C   0  0  0  0  0  0  0  0  0  0  0  0
   15.9041   -1.0669   14.8980 O   0  0  0  0  0  0  0  0  0  0  0  0
   14.0656   -2.3948   15.7263 N   0  0  0  0  0  0  0  0  0  0  0  0
   12.8852   -1.8744   15.2754 C   0  0  0  0  0  0  0  0  0  0  0  0
   11.8592   -2.8143   15.3197 C   0  0  0  0  0  0  0  0  0  0  0  0
   10.5654   -2.4100   15.1643 C   0  0  0  0  0  0  0  0  0  0  0  0
   10.2721   -1.0634   15.1294 C   0  0  0  0  0  0  0  0  0  0  0  0
   11.2909   -0.1284   15.0671 C   0  0  0  0  0  0  0  0  0  0  0  0
   12.6347   -0.5083   15.0926 C   0  0  0  0  0  0  0  0  0  0  0  0
   13.6618    0.5828   14.8503 C   0  0  0  0  0  0  0  0  0  0  0  0
   13.1071    1.8309   15.2921 O   0  0  0  0  0  0  0  0  0  0  0  0
   13.9260    0.5747   13.3508 C   0  0  0  0  0  0  0  0  0  0  0  0
   14.9697    1.8671   12.7616 S   0  0  0  0  0  0  0  0  0  0  0  0
   16.6094    1.1968   12.7781 C   0  0  0  0  0  0  0  0  0  0  0  0
   14.9247    2.9708   13.7048 O   0  0  0  0  0  0  0  0  0  0  0  0
   14.6055    2.0782   11.3709 O   0  0  0  0  0  0  0  0  0  0  0  0
   19.5923   -2.8894   16.2179 H   0  0  0  0  0  0  0  0  0  0  0  0
   18.4998   -1.9311   15.2101 H   0  0  0  0  0  0  0  0  0  0  0  0
   18.4272   -3.6895   15.1483 H   0  0  0  0  0  0  0  0  0  0  0  0
   18.4575   -4.0846   18.5370 H   0  0  0  0  0  0  0  0  0  0  0  0
   17.8480   -5.0008   17.1532 H   0  0  0  0  0  0  0  0  0  0  0  0
   16.3771   -3.8694   19.2648 H   0  0  0  0  0  0  0  0  0  0  0  0
   18.6863   -1.4324   18.1734 H   0  0  0  0  0  0  0  0  0  0  0  0
   17.0394   -1.6827   18.7433 H   0  0  0  0  0  0  0  0  0  0  0  0
   17.1726   -0.4759   16.2648 H   0  0  0  0  0  0  0  0  0  0  0  0
   15.5547   -3.5429   16.8221 H   0  0  0  0  0  0  0  0  0  0  0  0
   14.0646   -3.2277   16.2868 H   0  0  0  0  0  0  0  0  0  0  0  0
   12.0586   -3.8682   15.4707 H   0  0  0  0  0  0  0  0  0  0  0  0
    9.7831   -3.1412   15.0266 H   0  0  0  0  0  0  0  0  0  0  0  0
    9.2415   -0.7371   15.0018 H   0  0  0  0  0  0  0  0  0  0  0  0
   11.0087    0.9150   14.9303 H   0  0  0  0  0  0  0  0  0  0  0  0
   14.5413    0.4730   15.4754 H   0  0  0  0  0  0  0  0  0  0  0  0
   13.7498    2.5362   15.0600 H   0  0  0  0  0  0  0  0  0  0  0  0
   12.9798    0.7387   12.8154 H   0  0  0  0  0  0  0  0  0  0  0  0
   14.3259   -0.3765   12.9851 H   0  0  0  0  0  0  0  0  0  0  0  0
   16.9180    1.0394   13.8121 H   0  0  0  0  0  0  0  0  0  0  0  0
   17.2758    1.9205   12.3035 H   0  0  0  0  0  0  0  0  0  0  0  0
   16.6189    0.2610   12.2168 H   0  0  0  0  0  0  0  0  0  0  0  0
  1  2  1  0
  2  3  1  0
  3  4  1  0
  2  5  1  0
  5  6  1  0
  2  7  1  0
  7  8  1  0
  8  9  2  0
  8 10  1  0
 10 11  1  0
 11 12  2  0
 12 13  1  0
 13 14  2  0
 14 15  1  0
 15 16  2  0
 16 17  1  0
 17 18  1  0
 17 19  1  0
 19 20  1  0
 20 21  1  0
 20 22  2  0
 20 23  2  0
 16 11  1  0
  1 24  1  0
  1 25  1  0
  1 26  1  0
  3 27  1  0
  3 28  1  0
  4 29  1  0
  5 30  1  0
  5 31  1  0
  6 32  1  0
  7 33  1  0
 10 34  1  0
 12 35  1  0
 13 36  1  0
 14 37  1  0
 15 38  1  0
 17 39  1  0
 18 40  1  0
 19 41  1  0
 19 42  1  0
 21 43  1  0
 21 44  1  0
 21 45  1  0
M  END
>  <Energy>  (327) 
26.226957544065868

>  <compound_id>  (327) 
3337

>  <target_id>  (327) 
1

>  <reference_id>  (327) 
111

>  <inspiration_ids>  (327) 
[111, 61]

>  <energy_score>  (327) 
-39.33218554313774

>  <distance_score>  (327) 
2.613241105212951

>  <path>  (327) 
/opt/xchem-fragalysis-2/maxwin/BulkDock/SCRATCH/505734/C3337-P111/C3337-P111.minimised.mol

>  <scratch_subdir>  (327) 
/opt/xchem-fragalysis-2/maxwin/BulkDock/SCRATCH/505734/C3337-P111

>  <fragmenstein_runtime>  (327) 
70.34409856796265

>  <fragmenstein_outcome>  (327) 
too moved

>  <fragmenstein_mode>  (327) 
expansion

>  <fragmenstein_error>  (327) 


$$$$
C3337-P61
     RDKit          3D

 45 45  0  0  0  0  0  0  0  0999 V2000
   18.5735   -2.8374   17.3177 C   0  0  0  0  0  0  0  0  0  0  0  0
   17.5341   -2.4698   18.3844 C   0  0  0  0  0  0  0  0  0  0  0  0
   17.5124   -3.5289   19.4941 C   0  0  0  0  0  0  0  0  0  0  0  0
   16.9283   -4.7433   18.9884 O   0  0  0  0  0  0  0  0  0  0  0  0
   17.7225   -1.0161   18.8794 C   0  0  0  0  0  0  0  0  0  0  0  0
   17.3564    0.0089   17.9404 O   0  0  0  0  0  0  0  0  0  0  0  0
   16.2196   -2.5091   17.8543 N   0  0  0  0  0  0  0  0  0  0  0  0
   15.6422   -1.8583   16.6278 C   0  0  0  0  0  0  0  0  0  0  0  0
   16.1426   -1.2560   15.8171 O   0  0  0  0  0  0  0  0  0  0  0  0
   14.1695   -2.1681   16.8578 N   0  0  0  0  0  0  0  0  0  0  0  0
   13.0791   -1.8775   16.0995 C   0  0  0  0  0  0  0  0  0  0  0  0
   12.1324   -2.8961   16.1818 C   0  0  0  0  0  0  0  0  0  0  0  0
   11.4382   -3.1973   15.0521 C   0  0  0  0  0  0  0  0  0  0  0  0
   11.7250   -2.4833   13.9077 C   0  0  0  0  0  0  0  0  0  0  0  0
   12.4618   -1.3056   13.9246 C   0  0  0  0  0  0  0  0  0  0  0  0
   13.1478   -0.9503   15.0581 C   0  0  0  0  0  0  0  0  0  0  0  0
   13.9176    0.3516   15.1070 C   0  0  0  0  0  0  0  0  0  0  0  0
   12.9619    1.4070   15.1474 O   0  0  0  0  0  0  0  0  0  0  0  0
   14.9944    0.4807   14.0232 C   0  0  0  0  0  0  0  0  0  0  0  0
   14.7278    1.7294   12.8054 S   0  0  0  0  0  0  0  0  0  0  0  0
   16.2989    1.7921   11.9794 C   0  0  0  0  0  0  0  0  0  0  0  0
   14.5611    2.9922   13.5039 O   0  0  0  0  0  0  0  0  0  0  0  0
   13.7546    1.2731   11.8319 O   0  0  0  0  0  0  0  0  0  0  0  0
   19.5796   -2.8663   17.7504 H   0  0  0  0  0  0  0  0  0  0  0  0
   18.5932   -2.1183   16.4924 H   0  0  0  0  0  0  0  0  0  0  0  0
   18.3670   -3.8205   16.8792 H   0  0  0  0  0  0  0  0  0  0  0  0
   16.9006   -3.2079   20.3448 H   0  0  0  0  0  0  0  0  0  0  0  0
   18.5230   -3.7438   19.8579 H   0  0  0  0  0  0  0  0  0  0  0  0
   17.1378   -5.4466   19.6291 H   0  0  0  0  0  0  0  0  0  0  0  0
   18.7657   -0.8462   19.1673 H   0  0  0  0  0  0  0  0  0  0  0  0
   17.1114   -0.8382   19.7720 H   0  0  0  0  0  0  0  0  0  0  0  0
   17.3840   -0.3682   17.0405 H   0  0  0  0  0  0  0  0  0  0  0  0
   15.5055   -3.0386   18.3217 H   0  0  0  0  0  0  0  0  0  0  0  0
   14.0611   -2.6654   17.7211 H   0  0  0  0  0  0  0  0  0  0  0  0
   12.1023   -3.5920   17.0143 H   0  0  0  0  0  0  0  0  0  0  0  0
   10.7713   -4.0443   15.0094 H   0  0  0  0  0  0  0  0  0  0  0  0
   11.3244   -2.8397   12.9735 H   0  0  0  0  0  0  0  0  0  0  0  0
   12.5050   -0.6859   13.0373 H   0  0  0  0  0  0  0  0  0  0  0  0
   14.4118    0.4203   16.0814 H   0  0  0  0  0  0  0  0  0  0  0  0
   13.4322    2.2620   15.0823 H   0  0  0  0  0  0  0  0  0  0  0  0
   15.2020   -0.4618   13.5060 H   0  0  0  0  0  0  0  0  0  0  0  0
   15.9249    0.7962   14.5126 H   0  0  0  0  0  0  0  0  0  0  0  0
   17.0714    2.0603   12.7024 H   0  0  0  0  0  0  0  0  0  0  0  0
   16.2415    2.5518   11.1970 H   0  0  0  0  0  0  0  0  0  0  0  0
   16.5037    0.8156   11.5366 H   0  0  0  0  0  0  0  0  0  0  0  0
  1  2  1  0
  2  3  1  0
  3  4  1  0
  2  5  1  0
  5  6  1  0
  2  7  1  0
  7  8  1  0
  8  9  2  0
  8 10  1  0
 10 11  1  0
 11 12  2  0
 12 13  1  0
 13 14  2  0
 14 15  1  0
 15 16  2  0
 16 17  1  0
 17 18  1  0
 17 19  1  0
 19 20  1  0
 20 21  1  0
 20 22  2  0
 20 23  2  0
 16 11  1  0
  1 24  1  0
  1 25  1  0
  1 26  1  0
  3 27  1  0
  3 28  1  0
  4 29  1  0
  5 30  1  0
  5 31  1  0
  6 32  1  0
  7 33  1  0
 10 34  1  0
 12 35  1  0
 13 36  1  0
 14 37  1  0
 15 38  1  0
 17 39  1  0
 18 40  1  0
 19 41  1  0
 19 42  1  0
 21 43  1  0
 21 44  1  0
 21 45  1  0
M  END
>  <Energy>  (328) 
44.433179533680544

>  <compound_id>  (328) 
3337

>  <target_id>  (328) 
1

>  <reference_id>  (328) 
61

>  <inspiration_ids>  (328) 
[111, 61]

>  <energy_score>  (328) 
-21.125963553522666

>  <distance_score>  (328) 
2.358485509913059

>  <path>  (328) 
/opt/xchem-fragalysis-2/maxwin/BulkDock/SCRATCH/505734/C3337-P61/C3337-P61.minimised.mol

>  <scratch_subdir>  (328) 
/opt/xchem-fragalysis-2/maxwin/BulkDock/SCRATCH/505734/C3337-P61

>  <fragmenstein_runtime>  (328) 
70.73507952690125

>  <fragmenstein_outcome>  (328) 
too moved

>  <fragmenstein_mode>  (328) 
expansion

>  <fragmenstein_error>  (328) 


$$$$
C3338-P111
     RDKit          3D

 31 31  0  0  0  0  0  0  0  0999 V2000
   16.3618    1.8106   11.9547 C   0  0  0  0  0  0  0  0  0  0  0  0
   14.7414    1.6765   12.6720 S   0  0  0  0  0  0  0  0  0  0  0  0
   14.4832    2.8872   13.4301 O   0  0  0  0  0  0  0  0  0  0  0  0
   13.8360    1.2906   11.6059 O   0  0  0  0  0  0  0  0  0  0  0  0
   14.8982    0.3010   13.7972 C   0  0  0  0  0  0  0  0  0  0  0  0
   14.2401    0.4889   15.1794 C   0  0  0  0  0  0  0  0  0  0  0  0
   13.0421    1.2657   15.1413 O   0  0  0  0  0  0  0  0  0  0  0  0
   15.1785    1.1211   16.2390 C   0  0  0  0  0  0  0  0  0  0  0  0
   15.7493    2.4501   15.8631 C   0  0  0  0  0  0  0  0  0  0  0  0
   16.7758    2.6058   15.2202 O   0  0  0  0  0  0  0  0  0  0  0  0
   14.9932    3.4853   16.2598 O   0  0  0  0  0  0  0  0  0  0  0  0
   13.7754   -0.9169   15.6433 C   0  0  0  0  0  0  0  0  0  0  0  0
   14.5427   -1.7118   16.5164 C   0  0  0  0  0  0  0  0  0  0  0  0
   14.1001   -2.9665   16.9268 C   0  0  0  0  0  0  0  0  0  0  0  0
   12.8970   -3.4559   16.4525 C   0  0  0  0  0  0  0  0  0  0  0  0
   12.4991   -4.6621   16.8614 F   0  0  0  0  0  0  0  0  0  0  0  0
   12.1241   -2.7239   15.5626 C   0  0  0  0  0  0  0  0  0  0  0  0
   12.5610   -1.4590   15.1603 C   0  0  0  0  0  0  0  0  0  0  0  0
   17.0923    2.0134   12.7372 H   0  0  0  0  0  0  0  0  0  0  0  0
   16.5958    0.8753   11.4426 H   0  0  0  0  0  0  0  0  0  0  0  0
   16.3474    2.6338   11.2372 H   0  0  0  0  0  0  0  0  0  0  0  0
   14.4632   -0.5448   13.2493 H   0  0  0  0  0  0  0  0  0  0  0  0
   15.9630    0.0697   13.9129 H   0  0  0  0  0  0  0  0  0  0  0  0
   13.2607    2.1820   14.8684 H   0  0  0  0  0  0  0  0  0  0  0  0
   14.6607    1.2358   17.2008 H   0  0  0  0  0  0  0  0  0  0  0  0
   16.0586    0.4978   16.4322 H   0  0  0  0  0  0  0  0  0  0  0  0
   15.3966    4.2736   15.8365 H   0  0  0  0  0  0  0  0  0  0  0  0
   15.5007   -1.3887   16.9106 H   0  0  0  0  0  0  0  0  0  0  0  0
   14.6884   -3.5667   17.6135 H   0  0  0  0  0  0  0  0  0  0  0  0
   11.1947   -3.1359   15.1807 H   0  0  0  0  0  0  0  0  0  0  0  0
   11.9411   -0.8912   14.4646 H   0  0  0  0  0  0  0  0  0  0  0  0
  1  2  1  0
  2  3  2  0
  2  4  2  0
  2  5  1  0
  5  6  1  0
  6  7  1  0
  6  8  1  0
  8  9  1  0
  9 10  2  0
  9 11  1  0
  6 12  1  0
 12 13  2  0
 13 14  1  0
 14 15  2  0
 15 16  1  0
 15 17  1  0
 17 18  2  0
 18 12  1  0
  1 19  1  0
  1 20  1  0
  1 21  1  0
  5 22  1  0
  5 23  1  0
  7 24  1  0
  8 25  1  0
  8 26  1  0
 11 27  1  0
 13 28  1  0
 14 29  1  0
 17 30  1  0
 18 31  1  0
M  END
>  <Energy>  (329) 
-4.1922485166693573

>  <compound_id>  (329) 
3338

>  <target_id>  (329) 
1

>  <reference_id>  (329) 
111

>  <inspiration_ids>  (329) 
[111, 63]

>  <energy_score>  (329) 
-54.50658368297999

>  <distance_score>  (329) 
0.6659252289391434

>  <path>  (329) 
/opt/xchem-fragalysis-2/maxwin/BulkDock/SCRATCH/505734/C3338-P111/C3338-P111.minimised.mol

>  <scratch_subdir>  (329) 
/opt/xchem-fragalysis-2/maxwin/BulkDock/SCRATCH/505734/C3338-P111

>  <fragmenstein_runtime>  (329) 
33.11270594596863

>  <fragmenstein_outcome>  (329) 
acceptable

>  <fragmenstein_mode>  (329) 
expansion

>  <fragmenstein_error>  (329) 


$$$$
C3338-P63
     RDKit          3D

 31 31  0  0  0  0  0  0  0  0999 V2000
   16.3521    1.4754   11.8355 C   0  0  0  0  0  0  0  0  0  0  0  0
   14.8363    1.7643   12.7127 S   0  0  0  0  0  0  0  0  0  0  0  0
   15.0726    2.9155   13.5702 O   0  0  0  0  0  0  0  0  0  0  0  0
   13.7779    1.7786   11.7220 O   0  0  0  0  0  0  0  0  0  0  0  0
   14.6846    0.2883   13.7095 C   0  0  0  0  0  0  0  0  0  0  0  0
   14.0061    0.4997   15.0735 C   0  0  0  0  0  0  0  0  0  0  0  0
   12.7593    1.1761   14.8672 O   0  0  0  0  0  0  0  0  0  0  0  0
   14.7723    1.4102   16.0683 C   0  0  0  0  0  0  0  0  0  0  0  0
   16.2767    1.3727   15.9553 C   0  0  0  0  0  0  0  0  0  0  0  0
   16.9711    0.4557   16.3654 O   0  0  0  0  0  0  0  0  0  0  0  0
   16.8146    2.4271   15.3087 O   0  0  0  0  0  0  0  0  0  0  0  0
   13.6491   -0.8925   15.6339 C   0  0  0  0  0  0  0  0  0  0  0  0
   14.4427   -1.5367   16.5966 C   0  0  0  0  0  0  0  0  0  0  0  0
   14.1213   -2.8104   17.0625 C   0  0  0  0  0  0  0  0  0  0  0  0
   13.0039   -3.4603   16.5701 C   0  0  0  0  0  0  0  0  0  0  0  0
   12.7424   -4.6959   17.0043 F   0  0  0  0  0  0  0  0  0  0  0  0
   12.1885   -2.8598   15.6210 C   0  0  0  0  0  0  0  0  0  0  0  0
   12.5155   -1.5870   15.1463 C   0  0  0  0  0  0  0  0  0  0  0  0
   17.1693    1.3879   12.5536 H   0  0  0  0  0  0  0  0  0  0  0  0
   16.2511    0.5595   11.2502 H   0  0  0  0  0  0  0  0  0  0  0  0
   16.5292    2.3245   11.1720 H   0  0  0  0  0  0  0  0  0  0  0  0
   14.1164   -0.4095   13.0812 H   0  0  0  0  0  0  0  0  0  0  0  0
   15.6842   -0.1404   13.8360 H   0  0  0  0  0  0  0  0  0  0  0  0
   12.1861    1.0176   15.6377 H   0  0  0  0  0  0  0  0  0  0  0  0
   14.4452    2.4537   15.9680 H   0  0  0  0  0  0  0  0  0  0  0  0
   14.5095    1.1786   17.1090 H   0  0  0  0  0  0  0  0  0  0  0  0
   16.1458    3.0370   14.9023 H   0  0  0  0  0  0  0  0  0  0  0  0
   15.3383   -1.0815   17.0081 H   0  0  0  0  0  0  0  0  0  0  0  0
   14.7475   -3.3030   17.8003 H   0  0  0  0  0  0  0  0  0  0  0  0
   11.3258   -3.3914   15.2293 H   0  0  0  0  0  0  0  0  0  0  0  0
   11.8808   -1.1466   14.3740 H   0  0  0  0  0  0  0  0  0  0  0  0
  1  2  1  0
  2  3  2  0
  2  4  2  0
  2  5  1  0
  5  6  1  0
  6  7  1  0
  6  8  1  0
  8  9  1  0
  9 10  2  0
  9 11  1  0
  6 12  1  0
 12 13  2  0
 13 14  1  0
 14 15  2  0
 15 16  1  0
 15 17  1  0
 17 18  2  0
 18 12  1  0
  1 19  1  0
  1 20  1  0
  1 21  1  0
  5 22  1  0
  5 23  1  0
  7 24  1  0
  8 25  1  0
  8 26  1  0
 11 27  1  0
 13 28  1  0
 14 29  1  0
 17 30  1  0
 18 31  1  0
M  END
>  <Energy>  (330) 
-7.4935497414398888

>  <compound_id>  (330) 
3338

>  <target_id>  (330) 
1

>  <reference_id>  (330) 
63

>  <inspiration_ids>  (330) 
[111, 63]

>  <energy_score>  (330) 
-57.80788490775103

>  <distance_score>  (330) 
0.6383235407835796

>  <path>  (330) 
/opt/xchem-fragalysis-2/maxwin/BulkDock/SCRATCH/505734/C3338-P63/C3338-P63.minimised.mol

>  <scratch_subdir>  (330) 
/opt/xchem-fragalysis-2/maxwin/BulkDock/SCRATCH/505734/C3338-P63

>  <fragmenstein_runtime>  (330) 
33.488572120666504

>  <fragmenstein_outcome>  (330) 
acceptable

>  <fragmenstein_mode>  (330) 
expansion

>  <fragmenstein_error>  (330) 


$$$$
C3339-P111
     RDKit          3D

 31 32  0  0  0  0  0  0  0  0999 V2000
   17.9808   -4.8072   20.1448 C   0  0  0  0  0  0  0  0  0  0  0  0
   16.8542   -4.3652   19.2117 C   0  0  0  0  0  0  0  0  0  0  0  0
   17.4294   -3.7951   17.8992 C   0  0  0  0  0  0  0  0  0  0  0  0
   16.5041   -2.7784   17.2170 C   0  0  0  0  0  0  0  0  0  0  0  0
   15.1102   -3.1332   17.4893 N   0  0  0  0  0  0  0  0  0  0  0  0
   14.1218   -2.6350   16.6269 C   0  0  0  0  0  0  0  0  0  0  0  0
   14.2683   -1.4470   15.8986 C   0  0  0  0  0  0  0  0  0  0  0  0
   13.2669   -0.9975   15.0315 C   0  0  0  0  0  0  0  0  0  0  0  0
   12.1003   -1.7366   14.8688 C   0  0  0  0  0  0  0  0  0  0  0  0
   11.9319   -2.9187   15.5799 C   0  0  0  0  0  0  0  0  0  0  0  0
   12.9275   -3.3540   16.4601 C   0  0  0  0  0  0  0  0  0  0  0  0
   14.7189   -3.0323   18.9180 C   0  0  0  0  0  0  0  0  0  0  0  0
   15.8963   -3.3619   19.8695 C   0  0  0  0  0  0  0  0  0  0  0  0
   16.6035   -2.1578   20.1984 O   0  0  0  0  0  0  0  0  0  0  0  0
   18.5911   -5.5820   19.6685 H   0  0  0  0  0  0  0  0  0  0  0  0
   17.5740   -5.2240   21.0720 H   0  0  0  0  0  0  0  0  0  0  0  0
   18.6429   -3.9759   20.4077 H   0  0  0  0  0  0  0  0  0  0  0  0
   16.2712   -5.2631   18.9643 H   0  0  0  0  0  0  0  0  0  0  0  0
   18.4041   -3.3194   18.0639 H   0  0  0  0  0  0  0  0  0  0  0  0
   17.6141   -4.6338   17.2152 H   0  0  0  0  0  0  0  0  0  0  0  0
   16.7221   -1.7658   17.5792 H   0  0  0  0  0  0  0  0  0  0  0  0
   16.7194   -2.7951   16.1410 H   0  0  0  0  0  0  0  0  0  0  0  0
   15.1653   -0.8434   15.9999 H   0  0  0  0  0  0  0  0  0  0  0  0
   13.4081   -0.0768   14.4724 H   0  0  0  0  0  0  0  0  0  0  0  0
   11.3321   -1.4020   14.1762 H   0  0  0  0  0  0  0  0  0  0  0  0
   11.0407   -3.5209   15.4284 H   0  0  0  0  0  0  0  0  0  0  0  0
   12.7861   -4.2950   16.9859 H   0  0  0  0  0  0  0  0  0  0  0  0
   13.9124   -3.7505   19.1095 H   0  0  0  0  0  0  0  0  0  0  0  0
   14.3523   -2.0231   19.1403 H   0  0  0  0  0  0  0  0  0  0  0  0
   15.4884   -3.7573   20.8070 H   0  0  0  0  0  0  0  0  0  0  0  0
   17.1600   -2.3517   20.9717 H   0  0  0  0  0  0  0  0  0  0  0  0
  1  2  1  0
  2  3  1  0
  3  4  1  0
  4  5  1  0
  5  6  1  0
  6  7  2  0
  7  8  1  0
  8  9  2  0
  9 10  1  0
 10 11  2  0
  5 12  1  0
 12 13  1  0
 13 14  1  0
 13  2  1  0
 11  6  1  0
  1 15  1  0
  1 16  1  0
  1 17  1  0
  2 18  1  0
  3 19  1  0
  3 20  1  0
  4 21  1  0
  4 22  1  0
  7 23  1  0
  8 24  1  0
  9 25  1  0
 10 26  1  0
 11 27  1  0
 12 28  1  0
 12 29  1  0
 13 30  1  0
 14 31  1  0
M  END
>  <Energy>  (331) 
54.895598715341279

>  <compound_id>  (331) 
3339

>  <target_id>  (331) 
1

>  <reference_id>  (331) 
111

>  <inspiration_ids>  (331) 
[111, 66]

>  <energy_score>  (331) 
-24.103139179257767

>  <distance_score>  (331) 
1.978951628053352

>  <path>  (331) 
/opt/xchem-fragalysis-2/maxwin/BulkDock/SCRATCH/505734/C3339-P111/C3339-P111.minimised.mol

>  <scratch_subdir>  (331) 
/opt/xchem-fragalysis-2/maxwin/BulkDock/SCRATCH/505734/C3339-P111

>  <fragmenstein_runtime>  (331) 
1.278616189956665

>  <fragmenstein_outcome>  (331) 
too moved

>  <fragmenstein_mode>  (331) 
expansion

>  <fragmenstein_error>  (331) 


$$$$
C3339-P66
     RDKit          3D

 31 32  0  0  0  0  0  0  0  0999 V2000
   18.1938   -4.4966   20.0252 C   0  0  0  0  0  0  0  0  0  0  0  0
   16.9953   -4.0174   19.2073 C   0  0  0  0  0  0  0  0  0  0  0  0
   17.1072   -4.5026   17.7478 C   0  0  0  0  0  0  0  0  0  0  0  0
   16.3250   -3.6294   16.7586 C   0  0  0  0  0  0  0  0  0  0  0  0
   15.1625   -3.0477   17.4433 N   0  0  0  0  0  0  0  0  0  0  0  0
   14.1957   -2.5787   16.5375 C   0  0  0  0  0  0  0  0  0  0  0  0
   14.4114   -1.4753   15.7016 C   0  0  0  0  0  0  0  0  0  0  0  0
   13.4453   -1.0789   14.7742 C   0  0  0  0  0  0  0  0  0  0  0  0
   12.2501   -1.7847   14.6694 C   0  0  0  0  0  0  0  0  0  0  0  0
   12.0191   -2.8829   15.4936 C   0  0  0  0  0  0  0  0  0  0  0  0
   12.9865   -3.2759   16.4227 C   0  0  0  0  0  0  0  0  0  0  0  0
   15.5186   -2.0740   18.5030 C   0  0  0  0  0  0  0  0  0  0  0  0
   16.8029   -2.4936   19.2628 C   0  0  0  0  0  0  0  0  0  0  0  0
   17.9351   -1.8325   18.6797 O   0  0  0  0  0  0  0  0  0  0  0  0
   18.2388   -5.5910   20.0329 H   0  0  0  0  0  0  0  0  0  0  0  0
   18.1146   -4.1574   21.0633 H   0  0  0  0  0  0  0  0  0  0  0  0
   19.1407   -4.1280   19.6181 H   0  0  0  0  0  0  0  0  0  0  0  0
   16.1003   -4.4779   19.6493 H   0  0  0  0  0  0  0  0  0  0  0  0
   18.1534   -4.5453   17.4205 H   0  0  0  0  0  0  0  0  0  0  0  0
   16.7333   -5.5331   17.6994 H   0  0  0  0  0  0  0  0  0  0  0  0
   16.9742   -2.8393   16.3592 H   0  0  0  0  0  0  0  0  0  0  0  0
   16.0204   -4.2560   15.9103 H   0  0  0  0  0  0  0  0  0  0  0  0
   15.3496   -0.9291   15.7497 H   0  0  0  0  0  0  0  0  0  0  0  0
   13.6328   -0.2293   14.1238 H   0  0  0  0  0  0  0  0  0  0  0  0
   11.5010   -1.4839   13.9420 H   0  0  0  0  0  0  0  0  0  0  0  0
   11.0988   -3.4494   15.3915 H   0  0  0  0  0  0  0  0  0  0  0  0
   12.8084   -4.1464   17.0494 H   0  0  0  0  0  0  0  0  0  0  0  0
   14.6886   -2.0515   19.2183 H   0  0  0  0  0  0  0  0  0  0  0  0
   15.6496   -1.0613   18.1032 H   0  0  0  0  0  0  0  0  0  0  0  0
   16.7299   -2.1411   20.2982 H   0  0  0  0  0  0  0  0  0  0  0  0
   18.6929   -1.9787   19.2709 H   0  0  0  0  0  0  0  0  0  0  0  0
  1  2  1  0
  2  3  1  0
  3  4  1  0
  4  5  1  0
  5  6  1  0
  6  7  2  0
  7  8  1  0
  8  9  2  0
  9 10  1  0
 10 11  2  0
  5 12  1  0
 12 13  1  0
 13 14  1  0
 13  2  1  0
 11  6  1  0
  1 15  1  0
  1 16  1  0
  1 17  1  0
  2 18  1  0
  3 19  1  0
  3 20  1  0
  4 21  1  0
  4 22  1  0
  7 23  1  0
  8 24  1  0
  9 25  1  0
 10 26  1  0
 11 27  1  0
 12 28  1  0
 12 29  1  0
 13 30  1  0
 14 31  1  0
M  END
>  <Energy>  (332) 
56.280830800600832

>  <compound_id>  (332) 
3339

>  <target_id>  (332) 
1

>  <reference_id>  (332) 
66

>  <inspiration_ids>  (332) 
[111, 66]

>  <energy_score>  (332) 
-22.71790709399822

>  <distance_score>  (332) 
1.5747431403185945

>  <path>  (332) 
/opt/xchem-fragalysis-2/maxwin/BulkDock/SCRATCH/505734/C3339-P66/C3339-P66.minimised.mol

>  <scratch_subdir>  (332) 
/opt/xchem-fragalysis-2/maxwin/BulkDock/SCRATCH/505734/C3339-P66

>  <fragmenstein_runtime>  (332) 
1.233842134475708

>  <fragmenstein_outcome>  (332) 
too moved

>  <fragmenstein_mode>  (332) 
expansion

>  <fragmenstein_error>  (332) 


$$$$
C3340-P111
     RDKit          3D

 27 27  0  0  0  0  0  0  0  0999 V2000
   14.1301    2.1193   11.8809 C   0  0  0  0  0  0  0  0  0  0  0  0
   15.1746    1.9242   13.3109 S   0  0  0  0  0  0  0  0  0  0  0  0
   16.1332    0.8898   12.9801 O   0  0  0  0  0  0  0  0  0  0  0  0
   15.6092    3.2476   13.7103 O   0  0  0  0  0  0  0  0  0  0  0  0
   14.0378    1.3565   14.5367 C   0  0  0  0  0  0  0  0  0  0  0  0
   14.5532    0.3181   15.5122 C   0  0  0  0  0  0  0  0  0  0  0  0
   13.3356   -0.3250   15.9516 O   0  0  0  0  0  0  0  0  0  0  0  0
   15.3281    0.6479   16.7861 C   0  0  0  0  0  0  0  0  0  0  0  0
   15.5554    1.9544   17.2382 C   0  0  0  0  0  0  0  0  0  0  0  0
   16.1444    2.1902   18.4900 C   0  0  0  0  0  0  0  0  0  0  0  0
   16.5207    1.1335   19.3121 C   0  0  0  0  0  0  0  0  0  0  0  0
   16.3095   -0.1681   18.8826 C   0  0  0  0  0  0  0  0  0  0  0  0
   15.7497   -0.4217   17.6222 C   0  0  0  0  0  0  0  0  0  0  0  0
   15.3679   -1.7490   17.3316 N   0  0  0  0  0  0  0  0  0  0  0  0
   13.7310    1.1438   11.5967 H   0  0  0  0  0  0  0  0  0  0  0  0
   14.7388    2.5234   11.0692 H   0  0  0  0  0  0  0  0  0  0  0  0
   13.3244    2.8142   12.1247 H   0  0  0  0  0  0  0  0  0  0  0  0
   13.2065    0.9162   13.9698 H   0  0  0  0  0  0  0  0  0  0  0  0
   13.6159    2.2299   15.0453 H   0  0  0  0  0  0  0  0  0  0  0  0
   15.1229   -0.4304   14.9499 H   0  0  0  0  0  0  0  0  0  0  0  0
   13.5846   -0.8997   16.7070 H   0  0  0  0  0  0  0  0  0  0  0  0
   15.2594    2.8135   16.6409 H   0  0  0  0  0  0  0  0  0  0  0  0
   16.2991    3.2139   18.8243 H   0  0  0  0  0  0  0  0  0  0  0  0
   16.9544    1.3261   20.2892 H   0  0  0  0  0  0  0  0  0  0  0  0
   16.5599   -0.9875   19.5514 H   0  0  0  0  0  0  0  0  0  0  0  0
   15.8699   -2.4321   17.8970 H   0  0  0  0  0  0  0  0  0  0  0  0
   15.4563   -1.9927   16.3478 H   0  0  0  0  0  0  0  0  0  0  0  0
  1  2  1  0
  2  3  2  0
  2  4  2  0
  2  5  1  0
  5  6  1  0
  6  7  1  0
  6  8  1  0
  8  9  2  0
  9 10  1  0
 10 11  2  0
 11 12  1  0
 12 13  2  0
 13 14  1  0
 13  8  1  0
  1 15  1  0
  1 16  1  0
  1 17  1  0
  5 18  1  0
  5 19  1  0
  6 20  1  0
  7 21  1  0
  9 22  1  0
 10 23  1  0
 11 24  1  0
 12 25  1  0
 14 26  1  0
 14 27  1  0
M  END
>  <Energy>  (333) 
11.40539598532912

>  <compound_id>  (333) 
3340

>  <target_id>  (333) 
1

>  <reference_id>  (333) 
111

>  <inspiration_ids>  (333) 
[111, 71]

>  <energy_score>  (333) 
-38.58159624315232

>  <distance_score>  (333) 
1.5415529275171658

>  <path>  (333) 
/opt/xchem-fragalysis-2/maxwin/BulkDock/SCRATCH/505734/C3340-P111/C3340-P111.minimised.mol

>  <scratch_subdir>  (333) 
/opt/xchem-fragalysis-2/maxwin/BulkDock/SCRATCH/505734/C3340-P111

>  <fragmenstein_runtime>  (333) 
58.776752948760986

>  <fragmenstein_outcome>  (333) 
too moved

>  <fragmenstein_mode>  (333) 
expansion

>  <fragmenstein_error>  (333) 


$$$$
C3340-P71
     RDKit          3D

 27 27  0  0  0  0  0  0  0  0999 V2000
   13.5646    1.1757   12.6967 C   0  0  0  0  0  0  0  0  0  0  0  0
   15.1394    1.8992   13.0841 S   0  0  0  0  0  0  0  0  0  0  0  0
   16.1738    1.0173   12.5769 O   0  0  0  0  0  0  0  0  0  0  0  0
   15.0832    3.2760   12.6261 O   0  0  0  0  0  0  0  0  0  0  0  0
   15.2882    1.9909   14.8485 C   0  0  0  0  0  0  0  0  0  0  0  0
   14.8945    0.7506   15.6174 C   0  0  0  0  0  0  0  0  0  0  0  0
   13.4630    0.6992   15.6562 O   0  0  0  0  0  0  0  0  0  0  0  0
   15.4057    0.6848   17.0612 C   0  0  0  0  0  0  0  0  0  0  0  0
   15.7230    1.8381   17.8052 C   0  0  0  0  0  0  0  0  0  0  0  0
   16.2203    1.7453   19.1103 C   0  0  0  0  0  0  0  0  0  0  0  0
   16.4358    0.5017   19.6878 C   0  0  0  0  0  0  0  0  0  0  0  0
   16.0949   -0.6455   18.9803 C   0  0  0  0  0  0  0  0  0  0  0  0
   15.5017   -0.5622   17.7120 C   0  0  0  0  0  0  0  0  0  0  0  0
   15.1656   -1.7528   17.0591 N   0  0  0  0  0  0  0  0  0  0  0  0
   13.5551    0.1358   13.0264 H   0  0  0  0  0  0  0  0  0  0  0  0
   13.4325    1.2161   11.6130 H   0  0  0  0  0  0  0  0  0  0  0  0
   12.7787    1.7540   13.1853 H   0  0  0  0  0  0  0  0  0  0  0  0
   14.6713    2.8454   15.1529 H   0  0  0  0  0  0  0  0  0  0  0  0
   16.3392    2.2491   15.0255 H   0  0  0  0  0  0  0  0  0  0  0  0
   15.2503   -0.1259   15.0650 H   0  0  0  0  0  0  0  0  0  0  0  0
   13.1878    0.7440   16.5909 H   0  0  0  0  0  0  0  0  0  0  0  0
   15.5975    2.8315   17.3806 H   0  0  0  0  0  0  0  0  0  0  0  0
   16.4660    2.6497   19.6620 H   0  0  0  0  0  0  0  0  0  0  0  0
   16.8551    0.4236   20.6870 H   0  0  0  0  0  0  0  0  0  0  0  0
   16.2558   -1.6149   19.4465 H   0  0  0  0  0  0  0  0  0  0  0  0
   15.0306   -2.5452   17.6823 H   0  0  0  0  0  0  0  0  0  0  0  0
   14.4084   -1.6778   16.3865 H   0  0  0  0  0  0  0  0  0  0  0  0
  1  2  1  0
  2  3  2  0
  2  4  2  0
  2  5  1  0
  5  6  1  0
  6  7  1  0
  6  8  1  0
  8  9  2  0
  9 10  1  0
 10 11  2  0
 11 12  1  0
 12 13  2  0
 13 14  1  0
 13  8  1  0
  1 15  1  0
  1 16  1  0
  1 17  1  0
  5 18  1  0
  5 19  1  0
  6 20  1  0
  7 21  1  0
  9 22  1  0
 10 23  1  0
 11 24  1  0
 12 25  1  0
 14 26  1  0
 14 27  1  0
M  END
>  <Energy>  (334) 
7.8433369084654503

>  <compound_id>  (334) 
3340

>  <target_id>  (334) 
1

>  <reference_id>  (334) 
71

>  <inspiration_ids>  (334) 
[111, 71]

>  <energy_score>  (334) 
-42.14365532001577

>  <distance_score>  (334) 
1.290880642384735

>  <path>  (334) 
/opt/xchem-fragalysis-2/maxwin/BulkDock/SCRATCH/505734/C3340-P71/C3340-P71.minimised.mol

>  <scratch_subdir>  (334) 
/opt/xchem-fragalysis-2/maxwin/BulkDock/SCRATCH/505734/C3340-P71

>  <fragmenstein_runtime>  (334) 
57.96965312957764

>  <fragmenstein_outcome>  (334) 
too moved

>  <fragmenstein_mode>  (334) 
expansion

>  <fragmenstein_error>  (334) 


$$$$
C3341-P111
     RDKit          3D

 48 49  0  0  0  0  0  0  0  0999 V2000
   11.8173   -2.8601   14.1115 C   0  0  0  0  0  0  0  0  0  0  0  0
   12.6379   -1.6203   13.7193 C   0  0  0  0  0  0  0  0  0  0  0  0
   13.6452   -1.9241   13.0602 O   0  0  0  0  0  0  0  0  0  0  0  0
   12.1981   -0.1499   13.9859 N   0  0  0  0  0  0  0  0  0  0  0  0
   12.5553    1.2555   15.3958 C   0  0  0  0  0  0  0  0  0  0  0  0
   11.5772    2.0763   14.5940 C   0  0  0  0  0  0  0  0  0  0  0  0
   11.9654    3.0662   13.5527 C   0  0  0  0  0  0  0  0  0  0  0  0
   11.9115    2.9350   12.3436 O   0  0  0  0  0  0  0  0  0  0  0  0
   12.3812    4.2242   14.1027 O   0  0  0  0  0  0  0  0  0  0  0  0
   12.1295    0.7325   14.3732 C   0  0  0  0  0  0  0  0  0  0  0  0
   11.1811   -0.5919   15.5935 C   0  0  0  0  0  0  0  0  0  0  0  0
   12.4166   -1.7792   16.2837 C   0  0  0  0  0  0  0  0  0  0  0  0
   14.1080   -1.7908   15.7699 C   0  0  0  0  0  0  0  0  0  0  0  0
   14.9348   -0.7643   14.5952 C   0  0  0  0  0  0  0  0  0  0  0  0
   14.0351    0.5579   13.6873 C   0  0  0  0  0  0  0  0  0  0  0  0
   14.9521    1.8032   13.5778 C   0  0  0  0  0  0  0  0  0  0  0  0
   15.4629    2.1878   14.8594 O   0  0  0  0  0  0  0  0  0  0  0  0
   16.1342    1.5184   12.6554 C   0  0  0  0  0  0  0  0  0  0  0  0
   16.0198    2.4930   11.1708 S   0  0  0  0  0  0  0  0  0  0  0  0
   14.6722    1.7666   10.2680 C   0  0  0  0  0  0  0  0  0  0  0  0
   17.2348    2.2601   10.4150 O   0  0  0  0  0  0  0  0  0  0  0  0
   15.6461    3.8422   11.5587 O   0  0  0  0  0  0  0  0  0  0  0  0
   12.9783    0.4033   15.5439 C   0  0  0  0  0  0  0  0  0  0  0  0
   11.6106   -3.3819   13.1715 H   0  0  0  0  0  0  0  0  0  0  0  0
   12.3982   -3.5706   14.6898 H   0  0  0  0  0  0  0  0  0  0  0  0
   10.8269   -2.7362   14.5314 H   0  0  0  0  0  0  0  0  0  0  0  0
   13.3632    2.1670   15.3326 H   0  0  0  0  0  0  0  0  0  0  0  0
   11.8321    1.5370   16.3778 H   0  0  0  0  0  0  0  0  0  0  0  0
   10.5047    2.0258   14.7920 H   0  0  0  0  0  0  0  0  0  0  0  0
   12.6201    4.7881   13.3331 H   0  0  0  0  0  0  0  0  0  0  0  0
   10.3527   -1.0420   15.0332 H   0  0  0  0  0  0  0  0  0  0  0  0
   10.6787   -0.0600   16.4132 H   0  0  0  0  0  0  0  0  0  0  0  0
   11.9867   -2.7813   16.3858 H   0  0  0  0  0  0  0  0  0  0  0  0
   12.5014   -1.5547   17.3482 H   0  0  0  0  0  0  0  0  0  0  0  0
   14.6701   -1.6313   16.7027 H   0  0  0  0  0  0  0  0  0  0  0  0
   14.3457   -2.8244   15.4898 H   0  0  0  0  0  0  0  0  0  0  0  0
   15.5028   -1.3795   13.8833 H   0  0  0  0  0  0  0  0  0  0  0  0
   15.7553   -0.2815   15.1528 H   0  0  0  0  0  0  0  0  0  0  0  0
   13.9103    0.2361   12.6359 H   0  0  0  0  0  0  0  0  0  0  0  0
   14.3659    2.6431   13.2172 H   0  0  0  0  0  0  0  0  0  0  0  0
   15.9741    3.0113   14.7364 H   0  0  0  0  0  0  0  0  0  0  0  0
   17.0867    1.7939   13.1218 H   0  0  0  0  0  0  0  0  0  0  0  0
   16.2077    0.4734   12.3397 H   0  0  0  0  0  0  0  0  0  0  0  0
   13.7507    1.8750   10.8371 H   0  0  0  0  0  0  0  0  0  0  0  0
   14.9019    0.7143   10.0928 H   0  0  0  0  0  0  0  0  0  0  0  0
   14.5819    2.2912    9.3145 H   0  0  0  0  0  0  0  0  0  0  0  0
   14.1265    0.4938   15.7108 H   0  0  0  0  0  0  0  0  0  0  0  0
   12.7159    0.0468   16.6566 H   0  0  0  0  0  0  0  0  0  0  0  0
  1  2  1  0
  2  3  2  0
  2  4  1  0
  4  5  1  0
  5  6  1  0
  6  7  1  0
  7  8  2  0
  7  9  1  0
  6 10  1  0
 10 11  1  0
 11 12  1  0
 12 13  1  0
 13 14  1  0
 14 15  1  0
 15 16  1  0
 16 17  1  0
 16 18  1  0
 18 19  1  0
 19 20  1  0
 19 21  2  0
 19 22  2  0
 10 23  1  0
 23  4  1  0
 15 10  1  0
  1 24  1  0
  1 25  1  0
  1 26  1  0
  5 27  1  0
  5 28  1  0
  6 29  1  0
  9 30  1  0
 11 31  1  0
 11 32  1  0
 12 33  1  0
 12 34  1  0
 13 35  1  0
 13 36  1  0
 14 37  1  0
 14 38  1  0
 15 39  1  0
 16 40  1  0
 17 41  1  0
 18 42  1  0
 18 43  1  0
 20 44  1  0
 20 45  1  0
 20 46  1  0
 23 47  1  0
 23 48  1  0
M  END
>  <Energy>  (335) 
1425.9648485621678

>  <compound_id>  (335) 
3341

>  <target_id>  (335) 
1

>  <reference_id>  (335) 
111

>  <inspiration_ids>  (335) 
[111, 76]

>  <energy_score>  (335) 
1325.1304114500017

>  <distance_score>  (335) 
3.0970301739136064

>  <path>  (335) 
/opt/xchem-fragalysis-2/maxwin/BulkDock/SCRATCH/505734/C3341-P111/C3341-P111.minimised.mol

>  <scratch_subdir>  (335) 
/opt/xchem-fragalysis-2/maxwin/BulkDock/SCRATCH/505734/C3341-P111

>  <fragmenstein_runtime>  (335) 
23.371590852737427

>  <fragmenstein_outcome>  (335) 
too moved

>  <fragmenstein_mode>  (335) 
expansion

>  <fragmenstein_error>  (335) 


$$$$
C3341-P76
     RDKit          3D

 48 49  0  0  0  0  0  0  0  0999 V2000
   17.7588   -2.1886   14.5029 C   0  0  0  0  0  0  0  0  0  0  0  0
   17.7235   -2.3713   16.0234 C   0  0  0  0  0  0  0  0  0  0  0  0
   18.7651   -2.7777   16.5606 O   0  0  0  0  0  0  0  0  0  0  0  0
   16.3531   -1.9013   16.7751 N   0  0  0  0  0  0  0  0  0  0  0  0
   14.7250   -2.7726   17.3533 C   0  0  0  0  0  0  0  0  0  0  0  0
   13.8584   -3.1982   16.0063 C   0  0  0  0  0  0  0  0  0  0  0  0
   12.6406   -2.5046   15.4482 C   0  0  0  0  0  0  0  0  0  0  0  0
   11.6189   -2.2804   16.0718 O   0  0  0  0  0  0  0  0  0  0  0  0
   12.7115   -2.2206   14.1403 O   0  0  0  0  0  0  0  0  0  0  0  0
   15.3159   -2.9293   15.5936 C   0  0  0  0  0  0  0  0  0  0  0  0
   16.7374   -4.0452   16.5341 C   0  0  0  0  0  0  0  0  0  0  0  0
   17.1661   -3.2426   18.2974 C   0  0  0  0  0  0  0  0  0  0  0  0
   16.5352   -1.5084   18.7830 C   0  0  0  0  0  0  0  0  0  0  0  0
   15.5169   -0.3380   17.6570 C   0  0  0  0  0  0  0  0  0  0  0  0
   15.0105   -0.9370   15.8606 C   0  0  0  0  0  0  0  0  0  0  0  0
   15.5070    0.1479   14.8526 C   0  0  0  0  0  0  0  0  0  0  0  0
   16.8874    0.4386   15.0069 O   0  0  0  0  0  0  0  0  0  0  0  0
   15.2347   -0.1213   13.3813 C   0  0  0  0  0  0  0  0  0  0  0  0
   14.7927    1.3597   12.4701 S   0  0  0  0  0  0  0  0  0  0  0  0
   13.0997    1.6409   12.9139 C   0  0  0  0  0  0  0  0  0  0  0  0
   14.8032    1.0143   11.0597 O   0  0  0  0  0  0  0  0  0  0  0  0
   15.5548    2.4963   12.9476 O   0  0  0  0  0  0  0  0  0  0  0  0
   15.2693   -3.3457   16.9622 C   0  0  0  0  0  0  0  0  0  0  0  0
   16.7906   -2.1575   14.0210 H   0  0  0  0  0  0  0  0  0  0  0  0
   18.2849   -3.0477   14.0705 H   0  0  0  0  0  0  0  0  0  0  0  0
   18.3421   -1.2990   14.2576 H   0  0  0  0  0  0  0  0  0  0  0  0
   14.4835   -2.9430   18.5403 H   0  0  0  0  0  0  0  0  0  0  0  0
   14.0489   -1.8797   17.5800 H   0  0  0  0  0  0  0  0  0  0  0  0
   13.4637   -4.2364   16.0500 H   0  0  0  0  0  0  0  0  0  0  0  0
   11.8029   -1.9306   13.8827 H   0  0  0  0  0  0  0  0  0  0  0  0
   17.5525   -4.3398   15.8366 H   0  0  0  0  0  0  0  0  0  0  0  0
   16.5539   -5.1395   16.7572 H   0  0  0  0  0  0  0  0  0  0  0  0
   18.2447   -3.2739   18.4973 H   0  0  0  0  0  0  0  0  0  0  0  0
   16.7779   -3.9088   19.0865 H   0  0  0  0  0  0  0  0  0  0  0  0
   15.9417   -1.6409   19.6964 H   0  0  0  0  0  0  0  0  0  0  0  0
   17.4396   -0.9377   19.0341 H   0  0  0  0  0  0  0  0  0  0  0  0
   16.1091    0.5796   17.5541 H   0  0  0  0  0  0  0  0  0  0  0  0
   14.6116   -0.0838   18.2163 H   0  0  0  0  0  0  0  0  0  0  0  0
   13.9361   -0.7617   15.8493 H   0  0  0  0  0  0  0  0  0  0  0  0
   14.9925    1.0678   15.1548 H   0  0  0  0  0  0  0  0  0  0  0  0
   17.1590    0.2501   15.9217 H   0  0  0  0  0  0  0  0  0  0  0  0
   16.1236   -0.4965   12.8651 H   0  0  0  0  0  0  0  0  0  0  0  0
   14.4200   -0.8252   13.2179 H   0  0  0  0  0  0  0  0  0  0  0  0
   12.7136    2.4512   12.2918 H   0  0  0  0  0  0  0  0  0  0  0  0
   13.0605    1.9317   13.9635 H   0  0  0  0  0  0  0  0  0  0  0  0
   12.5256    0.7307   12.7370 H   0  0  0  0  0  0  0  0  0  0  0  0
   15.4644   -4.2584   17.9037 H   0  0  0  0  0  0  0  0  0  0  0  0
   15.0635   -4.5215   16.4266 H   0  0  0  0  0  0  0  0  0  0  0  0
  1  2  1  0
  2  3  2  0
  2  4  1  0
  4  5  1  0
  5  6  1  0
  6  7  1  0
  7  8  2  0
  7  9  1  0
  6 10  1  0
 10 11  1  0
 11 12  1  0
 12 13  1  0
 13 14  1  0
 14 15  1  0
 15 16  1  0
 16 17  1  0
 16 18  1  0
 18 19  1  0
 19 20  1  0
 19 21  2  0
 19 22  2  0
 10 23  1  0
 23  4  1  0
 15 10  1  0
  1 24  1  0
  1 25  1  0
  1 26  1  0
  5 27  1  0
  5 28  1  0
  6 29  1  0
  9 30  1  0
 11 31  1  0
 11 32  1  0
 12 33  1  0
 12 34  1  0
 13 35  1  0
 13 36  1  0
 14 37  1  0
 14 38  1  0
 15 39  1  0
 16 40  1  0
 17 41  1  0
 18 42  1  0
 18 43  1  0
 20 44  1  0
 20 45  1  0
 20 46  1  0
 23 47  1  0
 23 48  1  0
M  END
>  <Energy>  (336) 
1453.952999401854

>  <compound_id>  (336) 
3341

>  <target_id>  (336) 
1

>  <reference_id>  (336) 
76

>  <inspiration_ids>  (336) 
[111, 76]

>  <energy_score>  (336) 
1353.1185622896871

>  <distance_score>  (336) 
2.357715439202641

>  <path>  (336) 
/opt/xchem-fragalysis-2/maxwin/BulkDock/SCRATCH/505734/C3341-P76/C3341-P76.minimised.mol

>  <scratch_subdir>  (336) 
/opt/xchem-fragalysis-2/maxwin/BulkDock/SCRATCH/505734/C3341-P76

>  <fragmenstein_runtime>  (336) 
24.379026889801025

>  <fragmenstein_outcome>  (336) 
too moved

>  <fragmenstein_mode>  (336) 
expansion

>  <fragmenstein_error>  (336) 


$$$$
C3342-P111
     RDKit          3D

 54 57  0  0  0  0  0  0  0  0999 V2000
   16.8789   -5.2616   15.9601 C   0  0  0  0  0  0  0  0  0  0  0  0
   15.6959   -4.3597   16.0500 N   0  0  0  0  0  0  0  0  0  0  0  0
   15.8632   -3.3230   15.0327 N   0  0  0  0  0  0  0  0  0  0  0  0
   16.6645   -2.2552   15.6362 C   0  0  0  0  0  0  0  0  0  0  0  0
   18.0589   -2.0629   15.0009 C   0  0  0  0  0  0  0  0  0  0  0  0
   17.9918   -1.5587   13.5446 C   0  0  0  0  0  0  0  0  0  0  0  0
   17.0352   -0.3668   13.3314 C   0  0  0  0  0  0  0  0  0  0  0  0
   15.6781   -0.6494   13.9701 C   0  0  0  0  0  0  0  0  0  0  0  0
   14.5404    0.3749   13.9207 C   0  0  0  0  0  0  0  0  0  0  0  0
   14.7004    1.3859   14.9010 O   0  0  0  0  0  0  0  0  0  0  0  0
   14.1717    0.8890   12.5640 C   0  0  0  0  0  0  0  0  0  0  0  0
   14.9759    2.3869   12.0976 S   0  0  0  0  0  0  0  0  0  0  0  0
   14.1515    2.7039   10.5656 C   0  0  0  0  0  0  0  0  0  0  0  0
   14.5826    3.4455   13.0066 O   0  0  0  0  0  0  0  0  0  0  0  0
   16.3642    2.1240   11.7817 O   0  0  0  0  0  0  0  0  0  0  0  0
   15.9366   -0.9488   15.4410 C   0  0  0  0  0  0  0  0  0  0  0  0
   16.6986   -2.5443   17.0650 N   0  0  0  0  0  0  0  0  0  0  0  0
   15.7499   -3.6184   17.2995 C   0  0  0  0  0  0  0  0  0  0  0  0
   14.1961   -3.0408   18.0193 S   0  0  0  0  0  0  0  0  0  0  0  0
   13.0689   -2.6658   16.7638 C   0  0  0  0  0  0  0  0  0  0  0  0
   12.3892   -3.6541   16.1579 C   0  0  0  0  0  0  0  0  0  0  0  0
   11.2723   -3.3373   15.2954 C   0  0  0  0  0  0  0  0  0  0  0  0
   10.8420   -2.0817   15.1313 C   0  0  0  0  0  0  0  0  0  0  0  0
   11.5709   -1.0226   15.6896 C   0  0  0  0  0  0  0  0  0  0  0  0
   11.4205    0.2785   15.6037 N   0  0  0  0  0  0  0  0  0  0  0  0
   12.3941    0.8466   16.3683 N   0  0  0  0  0  0  0  0  0  0  0  0
   13.0735   -0.1206   16.9487 C   0  0  0  0  0  0  0  0  0  0  0  0
   12.6466   -1.3456   16.5076 N   0  0  0  0  0  0  0  0  0  0  0  0
   16.9297   -5.9466   16.8136 H   0  0  0  0  0  0  0  0  0  0  0  0
   17.8418   -4.7438   15.9387 H   0  0  0  0  0  0  0  0  0  0  0  0
   16.8105   -5.8782   15.0586 H   0  0  0  0  0  0  0  0  0  0  0  0
   16.2955   -3.6871   14.1780 H   0  0  0  0  0  0  0  0  0  0  0  0
   18.6254   -1.3271   15.5886 H   0  0  0  0  0  0  0  0  0  0  0  0
   18.6484   -2.9850   15.0273 H   0  0  0  0  0  0  0  0  0  0  0  0
   17.6707   -2.3851   12.8980 H   0  0  0  0  0  0  0  0  0  0  0  0
   18.9977   -1.2794   13.2101 H   0  0  0  0  0  0  0  0  0  0  0  0
   16.9254   -0.2177   12.2534 H   0  0  0  0  0  0  0  0  0  0  0  0
   17.4791    0.5407   13.7569 H   0  0  0  0  0  0  0  0  0  0  0  0
   15.2784   -1.5325   13.4526 H   0  0  0  0  0  0  0  0  0  0  0  0
   13.6652   -0.2036   14.2216 H   0  0  0  0  0  0  0  0  0  0  0  0
   13.8202    1.7731   15.0891 H   0  0  0  0  0  0  0  0  0  0  0  0
   14.3396    0.1411   11.7828 H   0  0  0  0  0  0  0  0  0  0  0  0
   13.1022    1.1363   12.5635 H   0  0  0  0  0  0  0  0  0  0  0  0
   14.5548    3.6286   10.1467 H   0  0  0  0  0  0  0  0  0  0  0  0
   14.3398    1.8758    9.8796 H   0  0  0  0  0  0  0  0  0  0  0  0
   13.0812    2.8184   10.7482 H   0  0  0  0  0  0  0  0  0  0  0  0
   16.4869   -0.1223   15.9152 H   0  0  0  0  0  0  0  0  0  0  0  0
   14.9974   -1.0062   15.9556 H   0  0  0  0  0  0  0  0  0  0  0  0
   16.4052   -1.7461   17.6168 H   0  0  0  0  0  0  0  0  0  0  0  0
   16.1585   -4.2502   18.0965 H   0  0  0  0  0  0  0  0  0  0  0  0
   12.5838   -4.6997   16.3771 H   0  0  0  0  0  0  0  0  0  0  0  0
   10.7122   -4.1527   14.8640 H   0  0  0  0  0  0  0  0  0  0  0  0
    9.9267   -1.8577   14.6119 H   0  0  0  0  0  0  0  0  0  0  0  0
   13.8838    0.0136   17.6517 H   0  0  0  0  0  0  0  0  0  0  0  0
  1  2  1  0
  2  3  1  0
  3  4  1  0
  4  5  1  0
  5  6  1  0
  6  7  1  0
  7  8  1  0
  8  9  1  0
  9 10  1  0
  9 11  1  0
 11 12  1  0
 12 13  1  0
 12 14  2  0
 12 15  2  0
  8 16  1  0
  4 17  1  0
 17 18  1  0
 18 19  1  0
 19 20  1  0
 20 21  2  0
 21 22  1  0
 22 23  2  0
 23 24  1  0
 24 25  2  0
 25 26  1  0
 26 27  2  0
 27 28  1  0
 18  2  1  0
 28 20  1  0
 16  4  1  0
 28 24  1  0
  1 29  1  0
  1 30  1  0
  1 31  1  0
  3 32  1  0
  5 33  1  0
  5 34  1  0
  6 35  1  0
  6 36  1  0
  7 37  1  0
  7 38  1  0
  8 39  1  0
  9 40  1  0
 10 41  1  0
 11 42  1  0
 11 43  1  0
 13 44  1  0
 13 45  1  0
 13 46  1  0
 16 47  1  0
 16 48  1  0
 17 49  1  0
 18 50  1  0
 21 51  1  0
 22 52  1  0
 23 53  1  0
 27 54  1  0
M  END
>  <Energy>  (337) 
35.590883725597152

>  <compound_id>  (337) 
3342

>  <target_id>  (337) 
1

>  <reference_id>  (337) 
111

>  <inspiration_ids>  (337) 
[111, 80]

>  <energy_score>  (337) 
-45.41894499166662

>  <distance_score>  (337) 
2.141392084739539

>  <path>  (337) 
/opt/xchem-fragalysis-2/maxwin/BulkDock/SCRATCH/505734/C3342-P111/C3342-P111.minimised.mol

>  <scratch_subdir>  (337) 
/opt/xchem-fragalysis-2/maxwin/BulkDock/SCRATCH/505734/C3342-P111

>  <fragmenstein_runtime>  (337) 
27.476735830307007

>  <fragmenstein_outcome>  (337) 
too moved

>  <fragmenstein_mode>  (337) 
expansion

>  <fragmenstein_error>  (337) 


$$$$
C3342-P80
     RDKit          3D

 54 57  0  0  0  0  0  0  0  0999 V2000
   16.6468   -5.3768   16.4740 C   0  0  0  0  0  0  0  0  0  0  0  0
   15.5268   -4.4049   16.4033 N   0  0  0  0  0  0  0  0  0  0  0  0
   15.9698   -3.3929   15.4475 N   0  0  0  0  0  0  0  0  0  0  0  0
   16.6443   -2.3455   16.2249 C   0  0  0  0  0  0  0  0  0  0  0  0
   18.1582   -2.2473   15.9448 C   0  0  0  0  0  0  0  0  0  0  0  0
   18.4716   -1.7392   14.5349 C   0  0  0  0  0  0  0  0  0  0  0  0
   17.7257   -0.4414   14.2039 C   0  0  0  0  0  0  0  0  0  0  0  0
   16.2139   -0.6114   14.4405 C   0  0  0  0  0  0  0  0  0  0  0  0
   15.2907    0.5854   14.1352 C   0  0  0  0  0  0  0  0  0  0  0  0
   15.2964    1.4892   15.2364 O   0  0  0  0  0  0  0  0  0  0  0  0
   15.7805    1.2464   12.8803 C   0  0  0  0  0  0  0  0  0  0  0  0
   14.7080    2.4827   12.2700 S   0  0  0  0  0  0  0  0  0  0  0  0
   13.3185    1.5840   11.6365 C   0  0  0  0  0  0  0  0  0  0  0  0
   14.2632    3.2906   13.3881 O   0  0  0  0  0  0  0  0  0  0  0  0
   15.4061    3.0679   11.1437 O   0  0  0  0  0  0  0  0  0  0  0  0
   16.0231   -1.0079   15.8935 C   0  0  0  0  0  0  0  0  0  0  0  0
   16.4040   -2.6459   17.6240 N   0  0  0  0  0  0  0  0  0  0  0  0
   15.4318   -3.7076   17.6754 C   0  0  0  0  0  0  0  0  0  0  0  0
   13.8404   -3.0686   18.1871 S   0  0  0  0  0  0  0  0  0  0  0  0
   12.9068   -2.6329   16.8078 C   0  0  0  0  0  0  0  0  0  0  0  0
   12.2434   -3.5973   16.1470 C   0  0  0  0  0  0  0  0  0  0  0  0
   11.1818   -3.2398   15.2365 C   0  0  0  0  0  0  0  0  0  0  0  0
   10.7949   -1.9684   15.0873 C   0  0  0  0  0  0  0  0  0  0  0  0
   11.5720   -0.9368   15.6256 C   0  0  0  0  0  0  0  0  0  0  0  0
   11.5069    0.3633   15.4783 N   0  0  0  0  0  0  0  0  0  0  0  0
   12.4610    0.9004   16.2860 N   0  0  0  0  0  0  0  0  0  0  0  0
   13.0453   -0.0802   16.9400 C   0  0  0  0  0  0  0  0  0  0  0  0
   12.5798   -1.2936   16.5073 N   0  0  0  0  0  0  0  0  0  0  0  0
   17.6217   -4.9295   16.6887 H   0  0  0  0  0  0  0  0  0  0  0  0
   16.4866   -6.1074   17.2718 H   0  0  0  0  0  0  0  0  0  0  0  0
   16.7371   -5.9192   15.5263 H   0  0  0  0  0  0  0  0  0  0  0  0
   15.1603   -3.0169   14.9596 H   0  0  0  0  0  0  0  0  0  0  0  0
   18.6153   -1.5531   16.6644 H   0  0  0  0  0  0  0  0  0  0  0  0
   18.6666   -3.2052   16.0931 H   0  0  0  0  0  0  0  0  0  0  0  0
   18.2027   -2.5093   13.8013 H   0  0  0  0  0  0  0  0  0  0  0  0
   19.5508   -1.5746   14.4368 H   0  0  0  0  0  0  0  0  0  0  0  0
   17.9381   -0.1934   13.1587 H   0  0  0  0  0  0  0  0  0  0  0  0
   18.1162    0.3789   14.8187 H   0  0  0  0  0  0  0  0  0  0  0  0
   15.8844   -1.4126   13.7651 H   0  0  0  0  0  0  0  0  0  0  0  0
   14.2651    0.2191   14.0227 H   0  0  0  0  0  0  0  0  0  0  0  0
   14.6599    2.2158   15.0527 H   0  0  0  0  0  0  0  0  0  0  0  0
   16.7248    1.7740   13.0621 H   0  0  0  0  0  0  0  0  0  0  0  0
   15.9307    0.5304   12.0650 H   0  0  0  0  0  0  0  0  0  0  0  0
   12.6575    2.2905   11.1300 H   0  0  0  0  0  0  0  0  0  0  0  0
   13.6842    0.8420   10.9270 H   0  0  0  0  0  0  0  0  0  0  0  0
   12.7860    1.1072   12.4604 H   0  0  0  0  0  0  0  0  0  0  0  0
   16.4170   -0.2316   16.5649 H   0  0  0  0  0  0  0  0  0  0  0  0
   14.9653   -1.0708   16.0665 H   0  0  0  0  0  0  0  0  0  0  0  0
   16.0390   -1.8499   18.1337 H   0  0  0  0  0  0  0  0  0  0  0  0
   15.7040   -4.3765   18.5001 H   0  0  0  0  0  0  0  0  0  0  0  0
   12.3632   -4.6490   16.3929 H   0  0  0  0  0  0  0  0  0  0  0  0
   10.5968   -4.0378   14.8063 H   0  0  0  0  0  0  0  0  0  0  0  0
    9.8768   -1.7004   14.5968 H   0  0  0  0  0  0  0  0  0  0  0  0
   13.8118    0.0377   17.6933 H   0  0  0  0  0  0  0  0  0  0  0  0
  1  2  1  0
  2  3  1  0
  3  4  1  0
  4  5  1  0
  5  6  1  0
  6  7  1  0
  7  8  1  0
  8  9  1  0
  9 10  1  0
  9 11  1  0
 11 12  1  0
 12 13  1  0
 12 14  2  0
 12 15  2  0
  8 16  1  0
  4 17  1  0
 17 18  1  0
 18 19  1  0
 19 20  1  0
 20 21  2  0
 21 22  1  0
 22 23  2  0
 23 24  1  0
 24 25  2  0
 25 26  1  0
 26 27  2  0
 27 28  1  0
 18  2  1  0
 28 20  1  0
 16  4  1  0
 28 24  1  0
  1 29  1  0
  1 30  1  0
  1 31  1  0
  3 32  1  0
  5 33  1  0
  5 34  1  0
  6 35  1  0
  6 36  1  0
  7 37  1  0
  7 38  1  0
  8 39  1  0
  9 40  1  0
 10 41  1  0
 11 42  1  0
 11 43  1  0
 13 44  1  0
 13 45  1  0
 13 46  1  0
 16 47  1  0
 16 48  1  0
 17 49  1  0
 18 50  1  0
 21 51  1  0
 22 52  1  0
 23 53  1  0
 27 54  1  0
M  END
>  <Energy>  (338) 
27.037066524738343

>  <compound_id>  (338) 
3342

>  <target_id>  (338) 
1

>  <reference_id>  (338) 
80

>  <inspiration_ids>  (338) 
[111, 80]

>  <energy_score>  (338) 
-53.972762192529956

>  <distance_score>  (338) 
2.2056770978855664

>  <path>  (338) 
/opt/xchem-fragalysis-2/maxwin/BulkDock/SCRATCH/505734/C3342-P80/C3342-P80.minimised.mol

>  <scratch_subdir>  (338) 
/opt/xchem-fragalysis-2/maxwin/BulkDock/SCRATCH/505734/C3342-P80

>  <fragmenstein_runtime>  (338) 
28.140474796295166

>  <fragmenstein_outcome>  (338) 
too moved

>  <fragmenstein_mode>  (338) 
expansion

>  <fragmenstein_error>  (338) 


$$$$
C2986-P111
     RDKit          3D

 48 49  0  0  0  0  0  0  0  0999 V2000
   11.0695   -3.1121   15.0138 C   0  0  0  0  0  0  0  0  0  0  0  0
   12.3366   -2.5764   15.5928 C   0  0  0  0  0  0  0  0  0  0  0  0
   13.1682   -3.4207   16.3372 C   0  0  0  0  0  0  0  0  0  0  0  0
   14.4099   -2.9743   16.7696 C   0  0  0  0  0  0  0  0  0  0  0  0
   14.8621   -1.7156   16.3818 C   0  0  0  0  0  0  0  0  0  0  0  0
   14.0482   -0.8550   15.6254 C   0  0  0  0  0  0  0  0  0  0  0  0
   14.7070    0.3512   14.9672 C   0  0  0  0  0  0  0  0  0  0  0  0
   14.3583    1.5077   15.6963 O   0  0  0  0  0  0  0  0  0  0  0  0
   14.3922    0.4127   13.4754 C   0  0  0  0  0  0  0  0  0  0  0  0
   15.1915    1.7503   12.6352 S   0  0  0  0  0  0  0  0  0  0  0  0
   16.8617    1.2005   12.4255 C   0  0  0  0  0  0  0  0  0  0  0  0
   15.2184    2.8961   13.5276 O   0  0  0  0  0  0  0  0  0  0  0  0
   14.6060    1.8310   11.3098 O   0  0  0  0  0  0  0  0  0  0  0  0
   12.7286   -1.2522   15.3632 C   0  0  0  0  0  0  0  0  0  0  0  0
   11.7507   -0.3680   14.9171 N   0  0  0  0  0  0  0  0  0  0  0  0
   11.4098    1.0828   15.3805 C   0  0  0  0  0  0  0  0  0  0  0  0
   11.8486    1.7207   16.2564 O   0  0  0  0  0  0  0  0  0  0  0  0
   10.3240    1.6123   14.5171 C   0  0  0  0  0  0  0  0  0  0  0  0
   10.8674    3.0532   13.6636 S   0  0  0  0  0  0  0  0  0  0  0  0
    9.7721    3.4376   12.7843 O   0  0  0  0  0  0  0  0  0  0  0  0
   12.1571    2.7663   13.0745 O   0  0  0  0  0  0  0  0  0  0  0  0
   11.0345    4.3396   14.8662 C   0  0  0  0  0  0  0  0  0  0  0  0
   12.3033    4.7476   15.2804 C   0  0  0  0  0  0  0  0  0  0  0  0
   12.4212    5.7754   16.2154 C   0  0  0  0  0  0  0  0  0  0  0  0
   11.2787    6.4014   16.7163 C   0  0  0  0  0  0  0  0  0  0  0  0
   10.0129    6.0070   16.2803 C   0  0  0  0  0  0  0  0  0  0  0  0
    9.8860    4.9767   15.3486 C   0  0  0  0  0  0  0  0  0  0  0  0
   10.2210   -2.4509   15.2042 H   0  0  0  0  0  0  0  0  0  0  0  0
   11.1967   -3.2465   13.9359 H   0  0  0  0  0  0  0  0  0  0  0  0
   10.8441   -4.0791   15.4479 H   0  0  0  0  0  0  0  0  0  0  0  0
   12.8544   -4.4349   16.5770 H   0  0  0  0  0  0  0  0  0  0  0  0
   15.0516   -3.6261   17.3566 H   0  0  0  0  0  0  0  0  0  0  0  0
   15.8735   -1.4181   16.6534 H   0  0  0  0  0  0  0  0  0  0  0  0
   15.7942    0.2506   15.0697 H   0  0  0  0  0  0  0  0  0  0  0  0
   14.6339    2.3026   15.1955 H   0  0  0  0  0  0  0  0  0  0  0  0
   14.6763   -0.5127   12.9616 H   0  0  0  0  0  0  0  0  0  0  0  0
   13.3314    0.5726   13.2822 H   0  0  0  0  0  0  0  0  0  0  0  0
   16.8593    0.2650   11.8632 H   0  0  0  0  0  0  0  0  0  0  0  0
   17.4045    1.9671   11.8682 H   0  0  0  0  0  0  0  0  0  0  0  0
   17.3208    1.0621   13.4054 H   0  0  0  0  0  0  0  0  0  0  0  0
   11.1177   -0.6444   14.1692 H   0  0  0  0  0  0  0  0  0  0  0  0
    9.9952    0.8972   13.7604 H   0  0  0  0  0  0  0  0  0  0  0  0
    9.4779    1.8676   15.1597 H   0  0  0  0  0  0  0  0  0  0  0  0
   13.2012    4.2731   14.8914 H   0  0  0  0  0  0  0  0  0  0  0  0
   13.4068    6.0896   16.5516 H   0  0  0  0  0  0  0  0  0  0  0  0
   11.3788    7.2056   17.4415 H   0  0  0  0  0  0  0  0  0  0  0  0
    9.1287    6.5125   16.6607 H   0  0  0  0  0  0  0  0  0  0  0  0
    8.8969    4.6937   14.9987 H   0  0  0  0  0  0  0  0  0  0  0  0
  1  2  1  0
  2  3  2  0
  3  4  1  0
  4  5  2  0
  5  6  1  0
  6  7  1  0
  7  8  1  0
  7  9  1  0
  9 10  1  0
 10 11  1  0
 10 12  2  0
 10 13  2  0
  6 14  2  0
 14 15  1  0
 15 16  1  0
 16 17  2  0
 16 18  1  0
 18 19  1  0
 19 20  2  0
 19 21  2  0
 19 22  1  0
 22 23  2  0
 23 24  1  0
 24 25  2  0
 25 26  1  0
 26 27  2  0
 14  2  1  0
 27 22  1  0
  1 28  1  0
  1 29  1  0
  1 30  1  0
  3 31  1  0
  4 32  1  0
  5 33  1  0
  7 34  1  0
  8 35  1  0
  9 36  1  0
  9 37  1  0
 11 38  1  0
 11 39  1  0
 11 40  1  0
 15 41  1  0
 18 42  1  0
 18 43  1  0
 23 44  1  0
 24 45  1  0
 25 46  1  0
 26 47  1  0
 27 48  1  0
M  END
>  <Energy>  (339) 
64.227259250736012

>  <compound_id>  (339) 
2986

>  <target_id>  (339) 
1

>  <reference_id>  (339) 
111

>  <inspiration_ids>  (339) 
[111, 81]

>  <energy_score>  (339) 
-33.60204614687194

>  <distance_score>  (339) 
0.9179868087072435

>  <path>  (339) 
/opt/xchem-fragalysis-2/maxwin/BulkDock/SCRATCH/505734/C2986-P111/C2986-P111.minimised.mol

>  <scratch_subdir>  (339) 
/opt/xchem-fragalysis-2/maxwin/BulkDock/SCRATCH/505734/C2986-P111

>  <fragmenstein_runtime>  (339) 
211.11679482460022

>  <fragmenstein_outcome>  (339) 
acceptable

>  <fragmenstein_mode>  (339) 
expansion

>  <fragmenstein_error>  (339) 


$$$$
C2986-P81
     RDKit          3D

 48 49  0  0  0  0  0  0  0  0999 V2000
   11.0702   -3.0902   14.8206 C   0  0  0  0  0  0  0  0  0  0  0  0
   12.3048   -2.6092   15.5070 C   0  0  0  0  0  0  0  0  0  0  0  0
   13.0169   -3.4570   16.3612 C   0  0  0  0  0  0  0  0  0  0  0  0
   14.2085   -3.0303   16.9406 C   0  0  0  0  0  0  0  0  0  0  0  0
   14.7265   -1.7733   16.6293 C   0  0  0  0  0  0  0  0  0  0  0  0
   14.0306   -0.9029   15.7786 C   0  0  0  0  0  0  0  0  0  0  0  0
   14.7321    0.3475   15.2605 C   0  0  0  0  0  0  0  0  0  0  0  0
   13.9372    1.4895   15.5024 O   0  0  0  0  0  0  0  0  0  0  0  0
   15.1207    0.1471   13.7917 C   0  0  0  0  0  0  0  0  0  0  0  0
   15.1744    1.6519   12.8574 S   0  0  0  0  0  0  0  0  0  0  0  0
   16.5115    1.3875   11.7252 C   0  0  0  0  0  0  0  0  0  0  0  0
   15.5725    2.7268   13.7451 O   0  0  0  0  0  0  0  0  0  0  0  0
   13.9502    1.7360   12.0785 O   0  0  0  0  0  0  0  0  0  0  0  0
   12.7770   -1.3124   15.2924 C   0  0  0  0  0  0  0  0  0  0  0  0
   11.9998   -0.4178   14.5788 N   0  0  0  0  0  0  0  0  0  0  0  0
   11.3304    0.9233   15.0233 C   0  0  0  0  0  0  0  0  0  0  0  0
   11.2735    1.4282   16.0756 O   0  0  0  0  0  0  0  0  0  0  0  0
   10.8259    1.5403   13.7654 C   0  0  0  0  0  0  0  0  0  0  0  0
   10.3973    3.2379   13.9469 S   0  0  0  0  0  0  0  0  0  0  0  0
    9.9555    3.6399   12.6155 O   0  0  0  0  0  0  0  0  0  0  0  0
    9.4629    3.4116   15.0444 O   0  0  0  0  0  0  0  0  0  0  0  0
   11.8694    4.1461   14.3155 C   0  0  0  0  0  0  0  0  0  0  0  0
   12.2035    4.4080   15.6472 C   0  0  0  0  0  0  0  0  0  0  0  0
   13.3230    5.1870   15.9373 C   0  0  0  0  0  0  0  0  0  0  0  0
   14.0897    5.7188   14.9006 C   0  0  0  0  0  0  0  0  0  0  0  0
   13.7390    5.4753   13.5716 C   0  0  0  0  0  0  0  0  0  0  0  0
   12.6249    4.6902   13.2738 C   0  0  0  0  0  0  0  0  0  0  0  0
   11.2599   -3.1554   13.7454 H   0  0  0  0  0  0  0  0  0  0  0  0
   10.8002   -4.0840   15.1646 H   0  0  0  0  0  0  0  0  0  0  0  0
   10.2246   -2.4243   15.0131 H   0  0  0  0  0  0  0  0  0  0  0  0
   12.6468   -4.4563   16.5804 H   0  0  0  0  0  0  0  0  0  0  0  0
   14.7525   -3.6906   17.6115 H   0  0  0  0  0  0  0  0  0  0  0  0
   15.6899   -1.4875   17.0469 H   0  0  0  0  0  0  0  0  0  0  0  0
   15.6512    0.5015   15.8401 H   0  0  0  0  0  0  0  0  0  0  0  0
   14.4922    2.2900   15.3893 H   0  0  0  0  0  0  0  0  0  0  0  0
   16.1113   -0.3195   13.7481 H   0  0  0  0  0  0  0  0  0  0  0  0
   14.4436   -0.5184   13.2452 H   0  0  0  0  0  0  0  0  0  0  0  0
   16.2888    0.5097   11.1158 H   0  0  0  0  0  0  0  0  0  0  0  0
   16.5993    2.2708   11.0891 H   0  0  0  0  0  0  0  0  0  0  0  0
   17.4334    1.2431   12.2914 H   0  0  0  0  0  0  0  0  0  0  0  0
   11.7882   -0.5960   13.6029 H   0  0  0  0  0  0  0  0  0  0  0  0
   11.5761    1.4888   12.9736 H   0  0  0  0  0  0  0  0  0  0  0  0
    9.9446    0.9871   13.4378 H   0  0  0  0  0  0  0  0  0  0  0  0
   11.6050    4.0081   16.4644 H   0  0  0  0  0  0  0  0  0  0  0  0
   13.5924    5.3822   16.9726 H   0  0  0  0  0  0  0  0  0  0  0  0
   14.9627    6.3255   15.1283 H   0  0  0  0  0  0  0  0  0  0  0  0
   14.3392    5.8944   12.7682 H   0  0  0  0  0  0  0  0  0  0  0  0
   12.3582    4.5152   12.2344 H   0  0  0  0  0  0  0  0  0  0  0  0
  1  2  1  0
  2  3  2  0
  3  4  1  0
  4  5  2  0
  5  6  1  0
  6  7  1  0
  7  8  1  0
  7  9  1  0
  9 10  1  0
 10 11  1  0
 10 12  2  0
 10 13  2  0
  6 14  2  0
 14 15  1  0
 15 16  1  0
 16 17  2  0
 16 18  1  0
 18 19  1  0
 19 20  2  0
 19 21  2  0
 19 22  1  0
 22 23  2  0
 23 24  1  0
 24 25  2  0
 25 26  1  0
 26 27  2  0
 14  2  1  0
 27 22  1  0
  1 28  1  0
  1 29  1  0
  1 30  1  0
  3 31  1  0
  4 32  1  0
  5 33  1  0
  7 34  1  0
  8 35  1  0
  9 36  1  0
  9 37  1  0
 11 38  1  0
 11 39  1  0
 11 40  1  0
 15 41  1  0
 18 42  1  0
 18 43  1  0
 23 44  1  0
 24 45  1  0
 25 46  1  0
 26 47  1  0
 27 48  1  0
M  END
>  <Energy>  (340) 
67.123494840636511

>  <compound_id>  (340) 
2986

>  <target_id>  (340) 
1

>  <reference_id>  (340) 
81

>  <inspiration_ids>  (340) 
[111, 81]

>  <energy_score>  (340) 
-30.7058105569717

>  <distance_score>  (340) 
0.8410013858730909

>  <path>  (340) 
/opt/xchem-fragalysis-2/maxwin/BulkDock/SCRATCH/505734/C2986-P81/C2986-P81.minimised.mol

>  <scratch_subdir>  (340) 
/opt/xchem-fragalysis-2/maxwin/BulkDock/SCRATCH/505734/C2986-P81

>  <fragmenstein_runtime>  (340) 
205.4370038509369

>  <fragmenstein_outcome>  (340) 
acceptable

>  <fragmenstein_mode>  (340) 
expansion

>  <fragmenstein_error>  (340) 


$$$$
C3343-P111
     RDKit          3D

 51 53  0  0  0  0  0  0  0  0999 V2000
   11.5019    0.9534   15.6406 C   0  0  0  0  0  0  0  0  0  0  0  0
   12.4240   -0.1748   15.9559 C   0  0  0  0  0  0  0  0  0  0  0  0
   13.6831    0.1095   16.4639 C   0  0  0  0  0  0  0  0  0  0  0  0
   14.6593   -0.8573   16.3631 C   0  0  0  0  0  0  0  0  0  0  0  0
   14.3483   -2.0416   15.7054 C   0  0  0  0  0  0  0  0  0  0  0  0
   15.4562   -2.7205   14.9464 C   0  0  0  0  0  0  0  0  0  0  0  0
   15.3077   -2.3521   13.5111 N   0  0  0  0  0  0  0  0  0  0  0  0
   16.1451   -1.4003   13.0338 C   0  0  0  0  0  0  0  0  0  0  0  0
   16.1132   -0.0231   13.2356 C   0  0  0  0  0  0  0  0  0  0  0  0
   17.2512    0.5396   12.8396 N   0  0  0  0  0  0  0  0  0  0  0  0
   18.0043   -0.5005   12.3912 N   0  0  0  0  0  0  0  0  0  0  0  0
   19.4374   -0.2357   12.3058 C   0  0  0  0  0  0  0  0  0  0  0  0
   20.1360   -0.4290   13.6622 C   0  0  0  0  0  0  0  0  0  0  0  0
   21.6105   -0.7642   13.4871 C   0  0  0  0  0  0  0  0  0  0  0  0
   22.1590    0.0068   12.4252 O   0  0  0  0  0  0  0  0  0  0  0  0
   21.6480   -0.3492   11.1390 C   0  0  0  0  0  0  0  0  0  0  0  0
   20.2205   -0.8911   11.1727 C   0  0  0  0  0  0  0  0  0  0  0  0
   17.2673   -1.6589   12.2823 C   0  0  0  0  0  0  0  0  0  0  0  0
   17.6437   -2.9781   11.7189 C   0  0  0  0  0  0  0  0  0  0  0  0
   18.2072   -2.8270   10.4269 O   0  0  0  0  0  0  0  0  0  0  0  0
   18.5320   -3.7206   12.7136 C   0  0  0  0  0  0  0  0  0  0  0  0
   19.2901   -4.8998   12.1477 C   0  0  0  0  0  0  0  0  0  0  0  0
   18.4076   -5.9255   11.7191 O   0  0  0  0  0  0  0  0  0  0  0  0
   13.0097   -2.3301   15.4532 C   0  0  0  0  0  0  0  0  0  0  0  0
   12.0398   -1.4076   15.5632 N   0  0  0  0  0  0  0  0  0  0  0  0
   11.8417    1.4783   14.7424 H   0  0  0  0  0  0  0  0  0  0  0  0
   11.4532    1.6642   16.4714 H   0  0  0  0  0  0  0  0  0  0  0  0
   10.4868    0.5847   15.4597 H   0  0  0  0  0  0  0  0  0  0  0  0
   13.9389    1.1090   16.8017 H   0  0  0  0  0  0  0  0  0  0  0  0
   15.6888   -0.5963   16.5988 H   0  0  0  0  0  0  0  0  0  0  0  0
   16.4418   -2.4207   15.3286 H   0  0  0  0  0  0  0  0  0  0  0  0
   15.4162   -3.8003   15.1009 H   0  0  0  0  0  0  0  0  0  0  0  0
   14.3266   -2.1477   13.3170 H   0  0  0  0  0  0  0  0  0  0  0  0
   15.3582    0.5870   13.7099 H   0  0  0  0  0  0  0  0  0  0  0  0
   19.4886    0.8431   12.0840 H   0  0  0  0  0  0  0  0  0  0  0  0
   19.6553   -1.1924   14.2833 H   0  0  0  0  0  0  0  0  0  0  0  0
   20.0471    0.5100   14.2249 H   0  0  0  0  0  0  0  0  0  0  0  0
   22.1590   -0.5263   14.4041 H   0  0  0  0  0  0  0  0  0  0  0  0
   21.7625   -1.8314   13.2854 H   0  0  0  0  0  0  0  0  0  0  0  0
   22.3228   -1.0832   10.6849 H   0  0  0  0  0  0  0  0  0  0  0  0
   21.6918    0.5535   10.5203 H   0  0  0  0  0  0  0  0  0  0  0  0
   20.2882   -1.9703   11.3332 H   0  0  0  0  0  0  0  0  0  0  0  0
   19.7414   -0.7362   10.1998 H   0  0  0  0  0  0  0  0  0  0  0  0
   16.7155   -3.5132   11.5341 H   0  0  0  0  0  0  0  0  0  0  0  0
   18.0210   -3.6665    9.9626 H   0  0  0  0  0  0  0  0  0  0  0  0
   19.2898   -3.0483   13.1239 H   0  0  0  0  0  0  0  0  0  0  0  0
   17.9283   -4.0426   13.5712 H   0  0  0  0  0  0  0  0  0  0  0  0
   19.9194   -4.6018   11.3030 H   0  0  0  0  0  0  0  0  0  0  0  0
   19.9428   -5.3219   12.9192 H   0  0  0  0  0  0  0  0  0  0  0  0
   18.9713   -6.6393   11.3623 H   0  0  0  0  0  0  0  0  0  0  0  0
   12.6869   -3.2612   15.0024 H   0  0  0  0  0  0  0  0  0  0  0  0
  1  2  1  0
  2  3  2  0
  3  4  1  0
  4  5  2  0
  5  6  1  0
  6  7  1  0
  7  8  1  0
  8  9  1  0
  9 10  2  0
 10 11  1  0
 11 12  1  0
 12 13  1  0
 13 14  1  0
 14 15  1  0
 15 16  1  0
 16 17  1  0
 11 18  1  0
 18 19  1  0
 19 20  1  0
 19 21  1  0
 21 22  1  0
 22 23  1  0
  5 24  1  0
 24 25  2  0
 25  2  1  0
 18  8  2  0
 17 12  1  0
  1 26  1  0
  1 27  1  0
  1 28  1  0
  3 29  1  0
  4 30  1  0
  6 31  1  0
  6 32  1  0
  7 33  1  0
  9 34  1  0
 12 35  1  0
 13 36  1  0
 13 37  1  0
 14 38  1  0
 14 39  1  0
 16 40  1  0
 16 41  1  0
 17 42  1  0
 17 43  1  0
 19 44  1  0
 20 45  1  0
 21 46  1  0
 21 47  1  0
 22 48  1  0
 22 49  1  0
 23 50  1  0
 24 51  1  0
M  END
>  <Energy>  (341) 
45.15745897368798

>  <compound_id>  (341) 
3343

>  <target_id>  (341) 
1

>  <reference_id>  (341) 
111

>  <inspiration_ids>  (341) 
[111, 83]

>  <energy_score>  (341) 
0.44209612857750535

>  <distance_score>  (341) 
2.0205034489700795

>  <path>  (341) 
/opt/xchem-fragalysis-2/maxwin/BulkDock/SCRATCH/505734/C3343-P111/C3343-P111.minimised.mol

>  <scratch_subdir>  (341) 
/opt/xchem-fragalysis-2/maxwin/BulkDock/SCRATCH/505734/C3343-P111

>  <fragmenstein_runtime>  (341) 
2.3504931926727295

>  <fragmenstein_outcome>  (341) 
too moved

>  <fragmenstein_mode>  (341) 
expansion

>  <fragmenstein_error>  (341) 


$$$$
C3343-P83
     RDKit          3D

 51 53  0  0  0  0  0  0  0  0999 V2000
   12.0709    0.8045   14.8853 C   0  0  0  0  0  0  0  0  0  0  0  0
   12.6758   -0.5170   15.2323 C   0  0  0  0  0  0  0  0  0  0  0  0
   13.9840   -0.5911   15.6996 C   0  0  0  0  0  0  0  0  0  0  0  0
   14.6287   -1.8032   15.7020 C   0  0  0  0  0  0  0  0  0  0  0  0
   13.9775   -2.8373   15.0525 C   0  0  0  0  0  0  0  0  0  0  0  0
   14.8049   -3.6411   14.0876 C   0  0  0  0  0  0  0  0  0  0  0  0
   14.7826   -2.9447   12.7526 N   0  0  0  0  0  0  0  0  0  0  0  0
   15.6738   -1.9247   12.5599 C   0  0  0  0  0  0  0  0  0  0  0  0
   15.5139   -0.5587   12.7923 C   0  0  0  0  0  0  0  0  0  0  0  0
   16.6680    0.0919   12.6876 N   0  0  0  0  0  0  0  0  0  0  0  0
   17.5576   -0.8573   12.2909 N   0  0  0  0  0  0  0  0  0  0  0  0
   18.9566   -0.4423   12.3844 C   0  0  0  0  0  0  0  0  0  0  0  0
   19.4877   -0.5609   13.8234 C   0  0  0  0  0  0  0  0  0  0  0  0
   20.9913   -0.7878   13.8498 C   0  0  0  0  0  0  0  0  0  0  0  0
   21.6143    0.0572   12.8910 O   0  0  0  0  0  0  0  0  0  0  0  0
   21.3168   -0.3000   11.5409 C   0  0  0  0  0  0  0  0  0  0  0  0
   19.9543   -0.9667   11.3596 C   0  0  0  0  0  0  0  0  0  0  0  0
   16.9165   -2.0393   11.9721 C   0  0  0  0  0  0  0  0  0  0  0  0
   17.3646   -3.2234   11.2116 C   0  0  0  0  0  0  0  0  0  0  0  0
   18.2730   -2.8890   10.1899 O   0  0  0  0  0  0  0  0  0  0  0  0
   17.8465   -4.3496   12.0798 C   0  0  0  0  0  0  0  0  0  0  0  0
   18.9933   -4.1333   13.0275 C   0  0  0  0  0  0  0  0  0  0  0  0
   19.1666   -5.3411   13.7705 O   0  0  0  0  0  0  0  0  0  0  0  0
   12.6011   -2.7703   14.8632 C   0  0  0  0  0  0  0  0  0  0  0  0
   11.9337   -1.6116   14.9612 N   0  0  0  0  0  0  0  0  0  0  0  0
   11.6133    0.7526   13.8914 H   0  0  0  0  0  0  0  0  0  0  0  0
   12.8168    1.6047   14.8587 H   0  0  0  0  0  0  0  0  0  0  0  0
   11.2933    1.0674   15.6077 H   0  0  0  0  0  0  0  0  0  0  0  0
   14.5739    0.2968   15.8883 H   0  0  0  0  0  0  0  0  0  0  0  0
   15.7012   -1.8289   15.8800 H   0  0  0  0  0  0  0  0  0  0  0  0
   15.8308   -3.7796   14.4489 H   0  0  0  0  0  0  0  0  0  0  0  0
   14.3517   -4.6237   14.0288 H   0  0  0  0  0  0  0  0  0  0  0  0
   13.8161   -2.6482   12.6027 H   0  0  0  0  0  0  0  0  0  0  0  0
   14.6322   -0.0127   13.0901 H   0  0  0  0  0  0  0  0  0  0  0  0
   18.9118    0.6392   12.1709 H   0  0  0  0  0  0  0  0  0  0  0  0
   18.9814   -1.3379   14.4030 H   0  0  0  0  0  0  0  0  0  0  0  0
   19.2643    0.3819   14.3414 H   0  0  0  0  0  0  0  0  0  0  0  0
   21.3892   -0.5371   14.8383 H   0  0  0  0  0  0  0  0  0  0  0  0
   21.2513   -1.8339   13.6496 H   0  0  0  0  0  0  0  0  0  0  0  0
   22.1121   -0.9553   11.1690 H   0  0  0  0  0  0  0  0  0  0  0  0
   21.3621    0.6232   10.9531 H   0  0  0  0  0  0  0  0  0  0  0  0
   20.0969   -2.0404   11.4888 H   0  0  0  0  0  0  0  0  0  0  0  0
   19.6068   -0.8029   10.3339 H   0  0  0  0  0  0  0  0  0  0  0  0
   16.4834   -3.6007   10.6731 H   0  0  0  0  0  0  0  0  0  0  0  0
   18.3137   -3.6647    9.5994 H   0  0  0  0  0  0  0  0  0  0  0  0
   17.0060   -4.6841   12.6884 H   0  0  0  0  0  0  0  0  0  0  0  0
   18.1424   -5.1730   11.4190 H   0  0  0  0  0  0  0  0  0  0  0  0
   19.9283   -3.9338   12.5015 H   0  0  0  0  0  0  0  0  0  0  0  0
   18.7952   -3.3383   13.7435 H   0  0  0  0  0  0  0  0  0  0  0  0
   18.3458   -5.4903   14.2733 H   0  0  0  0  0  0  0  0  0  0  0  0
   12.0376   -3.5904   14.4270 H   0  0  0  0  0  0  0  0  0  0  0  0
  1  2  1  0
  2  3  2  0
  3  4  1  0
  4  5  2  0
  5  6  1  0
  6  7  1  0
  7  8  1  0
  8  9  1  0
  9 10  2  0
 10 11  1  0
 11 12  1  0
 12 13  1  0
 13 14  1  0
 14 15  1  0
 15 16  1  0
 16 17  1  0
 11 18  1  0
 18 19  1  0
 19 20  1  0
 19 21  1  0
 21 22  1  0
 22 23  1  0
  5 24  1  0
 24 25  2  0
 25  2  1  0
 18  8  2  0
 17 12  1  0
  1 26  1  0
  1 27  1  0
  1 28  1  0
  3 29  1  0
  4 30  1  0
  6 31  1  0
  6 32  1  0
  7 33  1  0
  9 34  1  0
 12 35  1  0
 13 36  1  0
 13 37  1  0
 14 38  1  0
 14 39  1  0
 16 40  1  0
 16 41  1  0
 17 42  1  0
 17 43  1  0
 19 44  1  0
 20 45  1  0
 21 46  1  0
 21 47  1  0
 22 48  1  0
 22 49  1  0
 23 50  1  0
 24 51  1  0
M  END
>  <Energy>  (342) 
59.754805377821327

>  <compound_id>  (342) 
3343

>  <target_id>  (342) 
1

>  <reference_id>  (342) 
83

>  <inspiration_ids>  (342) 
[111, 83]

>  <energy_score>  (342) 
15.039442532711242

>  <distance_score>  (342) 
1.6695114418773895

>  <path>  (342) 
/opt/xchem-fragalysis-2/maxwin/BulkDock/SCRATCH/505734/C3343-P83/C3343-P83.minimised.mol

>  <scratch_subdir>  (342) 
/opt/xchem-fragalysis-2/maxwin/BulkDock/SCRATCH/505734/C3343-P83

>  <fragmenstein_runtime>  (342) 
2.117671012878418

>  <fragmenstein_outcome>  (342) 
too moved

>  <fragmenstein_mode>  (342) 
expansion

>  <fragmenstein_error>  (342) 


$$$$
C3344-P111
     RDKit          3D

 41 44  0  0  0  0  0  0  0  0999 V2000
   15.6729   -3.5853   15.4801 O   0  0  0  0  0  0  0  0  0  0  0  0
   16.0294   -3.5337   16.6446 C   0  0  0  0  0  0  0  0  0  0  0  0
   15.2490   -3.8859   17.7084 O   0  0  0  0  0  0  0  0  0  0  0  0
   13.8457   -3.9854   17.4109 C   0  0  0  0  0  0  0  0  0  0  0  0
   13.3043   -2.6821   16.8994 C   0  0  0  0  0  0  0  0  0  0  0  0
   13.8026   -1.4772   17.4252 C   0  0  0  0  0  0  0  0  0  0  0  0
   13.4351   -0.2492   16.8861 C   0  0  0  0  0  0  0  0  0  0  0  0
   12.5839   -0.2596   15.7879 C   0  0  0  0  0  0  0  0  0  0  0  0
   12.1242    0.7789   15.0457 N   0  0  0  0  0  0  0  0  0  0  0  0
   11.4258    0.1922   14.1027 C   0  0  0  0  0  0  0  0  0  0  0  0
   10.7270    1.1494   12.8635 Cl  0  0  0  0  0  0  0  0  0  0  0  0
   11.3296   -1.1714   14.2193 O   0  0  0  0  0  0  0  0  0  0  0  0
   12.0896   -1.4568   15.3082 C   0  0  0  0  0  0  0  0  0  0  0  0
   12.3755   -2.6975   15.8452 C   0  0  0  0  0  0  0  0  0  0  0  0
   17.2738   -3.0113   17.1196 C   0  0  0  0  0  0  0  0  0  0  0  0
   18.0201   -3.4681   18.1974 C   0  0  0  0  0  0  0  0  0  0  0  0
   19.1375   -2.6328   18.2593 C   0  0  0  0  0  0  0  0  0  0  0  0
   19.1130   -1.6979   17.3145 N   0  0  0  0  0  0  0  0  0  0  0  0
   17.9710   -1.9357   16.6145 N   0  0  0  0  0  0  0  0  0  0  0  0
   17.6730   -0.9422   15.5617 C   0  0  0  0  0  0  0  0  0  0  0  0
   16.9093    0.2698   16.1106 C   0  0  0  0  0  0  0  0  0  0  0  0
   16.4286    1.1932   14.9866 C   0  0  0  0  0  0  0  0  0  0  0  0
   15.6490    0.5619   13.9749 O   0  0  0  0  0  0  0  0  0  0  0  0
   15.6974   -0.8621   13.9578 C   0  0  0  0  0  0  0  0  0  0  0  0
   17.0925   -1.4040   14.2136 C   0  0  0  0  0  0  0  0  0  0  0  0
   13.3227   -4.2614   18.3319 H   0  0  0  0  0  0  0  0  0  0  0  0
   13.6801   -4.7624   16.6626 H   0  0  0  0  0  0  0  0  0  0  0  0
   14.4979   -1.4900   18.2654 H   0  0  0  0  0  0  0  0  0  0  0  0
   13.8210    0.6841   17.2807 H   0  0  0  0  0  0  0  0  0  0  0  0
   11.9776   -3.6069   15.4143 H   0  0  0  0  0  0  0  0  0  0  0  0
   17.7796   -4.3021   18.8424 H   0  0  0  0  0  0  0  0  0  0  0  0
   19.9672   -2.6586   18.9543 H   0  0  0  0  0  0  0  0  0  0  0  0
   18.6760   -0.5690   15.2960 H   0  0  0  0  0  0  0  0  0  0  0  0
   16.0573   -0.0793   16.6917 H   0  0  0  0  0  0  0  0  0  0  0  0
   17.5414    0.8350   16.8062 H   0  0  0  0  0  0  0  0  0  0  0  0
   15.8320    2.0108   15.4041 H   0  0  0  0  0  0  0  0  0  0  0  0
   17.2936    1.6504   14.4926 H   0  0  0  0  0  0  0  0  0  0  0  0
   15.3423   -1.1890   12.9751 H   0  0  0  0  0  0  0  0  0  0  0  0
   14.9943   -1.2479   14.6927 H   0  0  0  0  0  0  0  0  0  0  0  0
   17.1501   -2.4869   14.0838 H   0  0  0  0  0  0  0  0  0  0  0  0
   17.7393   -0.9910   13.4257 H   0  0  0  0  0  0  0  0  0  0  0  0
  1  2  2  0
  2  3  1  0
  3  4  1  0
  4  5  1  0
  5  6  2  0
  6  7  1  0
  7  8  2  0
  8  9  1  0
  9 10  2  0
 10 11  1  0
 10 12  1  0
 12 13  1  0
 13 14  2  0
  2 15  1  0
 15 16  2  0
 16 17  1  0
 17 18  2  0
 18 19  1  0
 19 20  1  0
 20 21  1  0
 21 22  1  0
 22 23  1  0
 23 24  1  0
 24 25  1  0
 14  5  1  0
 19 15  1  0
 25 20  1  0
 13  8  1  0
  4 26  1  0
  4 27  1  0
  6 28  1  0
  7 29  1  0
 14 30  1  0
 16 31  1  0
 17 32  1  0
 20 33  1  0
 21 34  1  0
 21 35  1  0
 22 36  1  0
 22 37  1  0
 24 38  1  0
 24 39  1  0
 25 40  1  0
 25 41  1  0
M  END
>  <Energy>  (343) 
13.706108147142089

>  <compound_id>  (343) 
3344

>  <target_id>  (343) 
1

>  <reference_id>  (343) 
111

>  <inspiration_ids>  (343) 
[111, 86]

>  <energy_score>  (343) 
-27.731322442299643

>  <distance_score>  (343) 
2.4068868093841664

>  <path>  (343) 
/opt/xchem-fragalysis-2/maxwin/BulkDock/SCRATCH/505734/C3344-P111/C3344-P111.minimised.mol

>  <scratch_subdir>  (343) 
/opt/xchem-fragalysis-2/maxwin/BulkDock/SCRATCH/505734/C3344-P111

>  <fragmenstein_runtime>  (343) 
38.09991407394409

>  <fragmenstein_outcome>  (343) 
too moved

>  <fragmenstein_mode>  (343) 
expansion

>  <fragmenstein_error>  (343) 


$$$$
C3344-P86
     RDKit          3D

 41 44  0  0  0  0  0  0  0  0999 V2000
   15.8045   -3.8715   15.7150 O   0  0  0  0  0  0  0  0  0  0  0  0
   16.0393   -3.8680   16.9145 C   0  0  0  0  0  0  0  0  0  0  0  0
   15.3833   -4.6775   17.8014 O   0  0  0  0  0  0  0  0  0  0  0  0
   14.2603   -4.0719   18.4895 C   0  0  0  0  0  0  0  0  0  0  0  0
   13.5045   -3.0985   17.6117 C   0  0  0  0  0  0  0  0  0  0  0  0
   13.7420   -1.7193   17.7635 C   0  0  0  0  0  0  0  0  0  0  0  0
   13.2946   -0.7817   16.8257 C   0  0  0  0  0  0  0  0  0  0  0  0
   12.8256   -1.2996   15.6240 C   0  0  0  0  0  0  0  0  0  0  0  0
   12.7694   -0.7129   14.3960 N   0  0  0  0  0  0  0  0  0  0  0  0
   12.7353   -1.7732   13.6116 C   0  0  0  0  0  0  0  0  0  0  0  0
   13.8350   -1.8593   12.2658 Cl  0  0  0  0  0  0  0  0  0  0  0  0
   12.2576   -2.9077   14.2229 O   0  0  0  0  0  0  0  0  0  0  0  0
   12.5418   -2.6499   15.5296 C   0  0  0  0  0  0  0  0  0  0  0  0
   12.7473   -3.5839   16.5329 C   0  0  0  0  0  0  0  0  0  0  0  0
   17.0224   -3.0414   17.5582 C   0  0  0  0  0  0  0  0  0  0  0  0
   17.8388   -3.3326   18.6381 C   0  0  0  0  0  0  0  0  0  0  0  0
   18.6369   -2.1934   18.8114 C   0  0  0  0  0  0  0  0  0  0  0  0
   18.3476   -1.2345   17.9335 N   0  0  0  0  0  0  0  0  0  0  0  0
   17.3621   -1.7595   17.1714 N   0  0  0  0  0  0  0  0  0  0  0  0
   16.7135   -0.9026   16.1623 C   0  0  0  0  0  0  0  0  0  0  0  0
   16.6446    0.5919   16.5532 C   0  0  0  0  0  0  0  0  0  0  0  0
   15.9767    1.4442   15.4662 C   0  0  0  0  0  0  0  0  0  0  0  0
   16.5975    1.2486   14.2003 O   0  0  0  0  0  0  0  0  0  0  0  0
   16.5349   -0.1135   13.7902 C   0  0  0  0  0  0  0  0  0  0  0  0
   17.2895   -1.0228   14.7536 C   0  0  0  0  0  0  0  0  0  0  0  0
   14.6256   -3.5987   19.4079 H   0  0  0  0  0  0  0  0  0  0  0  0
   13.5874   -4.8796   18.7954 H   0  0  0  0  0  0  0  0  0  0  0  0
   14.3172   -1.3614   18.6201 H   0  0  0  0  0  0  0  0  0  0  0  0
   13.5117    0.2731   16.9415 H   0  0  0  0  0  0  0  0  0  0  0  0
   12.5938   -4.6427   16.3639 H   0  0  0  0  0  0  0  0  0  0  0  0
   17.8668   -4.2554   19.2010 H   0  0  0  0  0  0  0  0  0  0  0  0
   19.4180   -2.0193   19.5410 H   0  0  0  0  0  0  0  0  0  0  0  0
   15.6946   -1.2735   16.0991 H   0  0  0  0  0  0  0  0  0  0  0  0
   16.1170    0.7188   17.5054 H   0  0  0  0  0  0  0  0  0  0  0  0
   17.6643    0.9726   16.6964 H   0  0  0  0  0  0  0  0  0  0  0  0
   14.9094    1.2233   15.3774 H   0  0  0  0  0  0  0  0  0  0  0  0
   16.0679    2.5043   15.7237 H   0  0  0  0  0  0  0  0  0  0  0  0
   16.9707   -0.1841   12.7890 H   0  0  0  0  0  0  0  0  0  0  0  0
   15.4885   -0.4016   13.7264 H   0  0  0  0  0  0  0  0  0  0  0  0
   17.2471   -2.0582   14.3993 H   0  0  0  0  0  0  0  0  0  0  0  0
   18.3480   -0.7334   14.7729 H   0  0  0  0  0  0  0  0  0  0  0  0
  1  2  2  0
  2  3  1  0
  3  4  1  0
  4  5  1  0
  5  6  2  0
  6  7  1  0
  7  8  2  0
  8  9  1  0
  9 10  2  0
 10 11  1  0
 10 12  1  0
 12 13  1  0
 13 14  2  0
  2 15  1  0
 15 16  2  0
 16 17  1  0
 17 18  2  0
 18 19  1  0
 19 20  1  0
 20 21  1  0
 21 22  1  0
 22 23  1  0
 23 24  1  0
 24 25  1  0
 14  5  1  0
 19 15  1  0
 25 20  1  0
 13  8  1  0
  4 26  1  0
  4 27  1  0
  6 28  1  0
  7 29  1  0
 14 30  1  0
 16 31  1  0
 17 32  1  0
 20 33  1  0
 21 34  1  0
 21 35  1  0
 22 36  1  0
 22 37  1  0
 24 38  1  0
 24 39  1  0
 25 40  1  0
 25 41  1  0
M  END
>  <Energy>  (344) 
38.76530916178762

>  <compound_id>  (344) 
3344

>  <target_id>  (344) 
1

>  <reference_id>  (344) 
86

>  <inspiration_ids>  (344) 
[111, 86]

>  <energy_score>  (344) 
-2.672121427653451

>  <distance_score>  (344) 
2.1498614667838387

>  <path>  (344) 
/opt/xchem-fragalysis-2/maxwin/BulkDock/SCRATCH/505734/C3344-P86/C3344-P86.minimised.mol

>  <scratch_subdir>  (344) 
/opt/xchem-fragalysis-2/maxwin/BulkDock/SCRATCH/505734/C3344-P86

>  <fragmenstein_runtime>  (344) 
37.86426901817322

>  <fragmenstein_outcome>  (344) 
too moved

>  <fragmenstein_mode>  (344) 
expansion

>  <fragmenstein_error>  (344) 


$$$$
C3345-P111
     RDKit          3D

 36 37  0  0  0  0  0  0  0  0999 V2000
   17.3643    1.2903   12.1747 C   0  0  0  0  0  0  0  0  0  0  0  0
   16.4250    0.9976   13.3287 C   0  0  0  0  0  0  0  0  0  0  0  0
   14.8870    1.8574   13.1588 S   0  0  0  0  0  0  0  0  0  0  0  0
   15.1884    3.2778   13.1738 O   0  0  0  0  0  0  0  0  0  0  0  0
   14.1297    1.2615   12.0730 O   0  0  0  0  0  0  0  0  0  0  0  0
   13.9084    1.6234   14.5645 N   0  0  0  0  0  0  0  0  0  0  0  0
   13.4511    2.6904   15.3019 C   0  0  0  0  0  0  0  0  0  0  0  0
   12.1817    2.3606   15.7212 C   0  0  0  0  0  0  0  0  0  0  0  0
   11.9065    1.0397   15.2624 C   0  0  0  0  0  0  0  0  0  0  0  0
   10.6084    0.3889   15.1918 C   0  0  0  0  0  0  0  0  0  0  0  0
    9.9787   -0.0726   16.1346 O   0  0  0  0  0  0  0  0  0  0  0  0
   10.1931    0.3520   13.9140 O   0  0  0  0  0  0  0  0  0  0  0  0
   13.1310    0.5067   14.8359 C   0  0  0  0  0  0  0  0  0  0  0  0
   13.6158   -0.9199   14.7336 C   0  0  0  0  0  0  0  0  0  0  0  0
   14.1372   -1.3447   16.1258 C   0  0  0  0  0  0  0  0  0  0  0  0
   14.1790   -2.8540   16.2788 C   0  0  0  0  0  0  0  0  0  0  0  0
   12.9180   -3.4834   16.0868 O   0  0  0  0  0  0  0  0  0  0  0  0
   11.9641   -2.7519   15.3210 C   0  0  0  0  0  0  0  0  0  0  0  0
   12.5886   -1.9242   14.2060 C   0  0  0  0  0  0  0  0  0  0  0  0
   16.9193    0.9920   11.2200 H   0  0  0  0  0  0  0  0  0  0  0  0
   17.5985    2.3579   12.1153 H   0  0  0  0  0  0  0  0  0  0  0  0
   18.3033    0.7427   12.3005 H   0  0  0  0  0  0  0  0  0  0  0  0
   16.8751    1.3167   14.2735 H   0  0  0  0  0  0  0  0  0  0  0  0
   16.2270   -0.0735   13.3742 H   0  0  0  0  0  0  0  0  0  0  0  0
   13.9826    3.6336   15.3279 H   0  0  0  0  0  0  0  0  0  0  0  0
   11.4770    3.0425   16.1815 H   0  0  0  0  0  0  0  0  0  0  0  0
    9.4545   -0.2854   13.7531 H   0  0  0  0  0  0  0  0  0  0  0  0
   14.4532   -0.9530   14.0326 H   0  0  0  0  0  0  0  0  0  0  0  0
   13.4842   -0.9412   16.9118 H   0  0  0  0  0  0  0  0  0  0  0  0
   15.1327   -0.9176   16.2975 H   0  0  0  0  0  0  0  0  0  0  0  0
   14.5309   -3.1220   17.2805 H   0  0  0  0  0  0  0  0  0  0  0  0
   14.8932   -3.2839   15.5694 H   0  0  0  0  0  0  0  0  0  0  0  0
   11.2532   -3.4706   14.9018 H   0  0  0  0  0  0  0  0  0  0  0  0
   11.4036   -2.1235   16.0137 H   0  0  0  0  0  0  0  0  0  0  0  0
   13.1136   -2.6055   13.5291 H   0  0  0  0  0  0  0  0  0  0  0  0
   11.8258   -1.4516   13.5879 H   0  0  0  0  0  0  0  0  0  0  0  0
  1  2  1  0
  2  3  1  0
  3  4  2  0
  3  5  2  0
  3  6  1  0
  6  7  1  0
  7  8  2  0
  8  9  1  0
  9 10  1  0
 10 11  2  0
 10 12  1  0
  9 13  2  0
 13 14  1  0
 14 15  1  0
 15 16  1  0
 16 17  1  0
 17 18  1  0
 18 19  1  0
 13  6  1  0
 19 14  1  0
  1 20  1  0
  1 21  1  0
  1 22  1  0
  2 23  1  0
  2 24  1  0
  7 25  1  0
  8 26  1  0
 12 27  1  0
 14 28  1  0
 15 29  1  0
 15 30  1  0
 16 31  1  0
 16 32  1  0
 18 33  1  0
 18 34  1  0
 19 35  1  0
 19 36  1  0
M  END
>  <Energy>  (345) 
97.600333258106801

>  <compound_id>  (345) 
3345

>  <target_id>  (345) 
1

>  <reference_id>  (345) 
111

>  <inspiration_ids>  (345) 
[111, 93]

>  <energy_score>  (345) 
-32.85766245984925

>  <distance_score>  (345) 
1.043545482884487

>  <path>  (345) 
/opt/xchem-fragalysis-2/maxwin/BulkDock/SCRATCH/505734/C3345-P111/C3345-P111.minimised.mol

>  <scratch_subdir>  (345) 
/opt/xchem-fragalysis-2/maxwin/BulkDock/SCRATCH/505734/C3345-P111

>  <fragmenstein_runtime>  (345) 
105.38177061080933

>  <fragmenstein_outcome>  (345) 
too moved

>  <fragmenstein_mode>  (345) 
expansion

>  <fragmenstein_error>  (345) 


$$$$
C3345-P93
     RDKit          3D

 36 37  0  0  0  0  0  0  0  0999 V2000
   16.5897   -0.4391   13.2008 C   0  0  0  0  0  0  0  0  0  0  0  0
   16.4610    0.9015   12.5109 C   0  0  0  0  0  0  0  0  0  0  0  0
   14.8660    1.6492   12.7145 S   0  0  0  0  0  0  0  0  0  0  0  0
   14.9517    2.9925   12.1702 O   0  0  0  0  0  0  0  0  0  0  0  0
   13.8325    0.7410   12.2628 O   0  0  0  0  0  0  0  0  0  0  0  0
   14.6026    1.9291   14.3768 N   0  0  0  0  0  0  0  0  0  0  0  0
   15.2267    2.9801   14.9941 C   0  0  0  0  0  0  0  0  0  0  0  0
   14.4939    3.2625   16.1107 C   0  0  0  0  0  0  0  0  0  0  0  0
   13.4343    2.3090   16.1868 C   0  0  0  0  0  0  0  0  0  0  0  0
   12.3307    2.4676   17.1138 C   0  0  0  0  0  0  0  0  0  0  0  0
   11.1597    2.2163   16.8709 O   0  0  0  0  0  0  0  0  0  0  0  0
   12.7149    3.0279   18.2847 O   0  0  0  0  0  0  0  0  0  0  0  0
   13.7336    1.2939   15.2550 C   0  0  0  0  0  0  0  0  0  0  0  0
   13.3815   -0.1859   15.1708 C   0  0  0  0  0  0  0  0  0  0  0  0
   13.9520   -0.9341   16.3950 C   0  0  0  0  0  0  0  0  0  0  0  0
   13.6098   -2.4182   16.3461 C   0  0  0  0  0  0  0  0  0  0  0  0
   12.2031   -2.6071   16.2257 O   0  0  0  0  0  0  0  0  0  0  0  0
   11.6794   -2.0261   15.0276 C   0  0  0  0  0  0  0  0  0  0  0  0
   11.8977   -0.5115   15.0154 C   0  0  0  0  0  0  0  0  0  0  0  0
   16.4640   -0.3418   14.2831 H   0  0  0  0  0  0  0  0  0  0  0  0
   15.8406   -1.1482   12.8347 H   0  0  0  0  0  0  0  0  0  0  0  0
   17.5797   -0.8668   13.0149 H   0  0  0  0  0  0  0  0  0  0  0  0
   16.6188    0.7885   11.4335 H   0  0  0  0  0  0  0  0  0  0  0  0
   17.2077    1.6048   12.8919 H   0  0  0  0  0  0  0  0  0  0  0  0
   16.0392    3.5215   14.5256 H   0  0  0  0  0  0  0  0  0  0  0  0
   14.6291    4.1266   16.7517 H   0  0  0  0  0  0  0  0  0  0  0  0
   11.9229    3.1560   18.8614 H   0  0  0  0  0  0  0  0  0  0  0  0
   13.8924   -0.6134   14.3014 H   0  0  0  0  0  0  0  0  0  0  0  0
   13.5267   -0.5039   17.3104 H   0  0  0  0  0  0  0  0  0  0  0  0
   15.0391   -0.8053   16.4550 H   0  0  0  0  0  0  0  0  0  0  0  0
   13.9350   -2.9066   17.2701 H   0  0  0  0  0  0  0  0  0  0  0  0
   14.1205   -2.9129   15.5134 H   0  0  0  0  0  0  0  0  0  0  0  0
   12.1389   -2.5051   14.1553 H   0  0  0  0  0  0  0  0  0  0  0  0
   10.6083   -2.2455   15.0036 H   0  0  0  0  0  0  0  0  0  0  0  0
   11.5001   -0.0786   14.0908 H   0  0  0  0  0  0  0  0  0  0  0  0
   11.3330   -0.0792   15.8474 H   0  0  0  0  0  0  0  0  0  0  0  0
  1  2  1  0
  2  3  1  0
  3  4  2  0
  3  5  2  0
  3  6  1  0
  6  7  1  0
  7  8  2  0
  8  9  1  0
  9 10  1  0
 10 11  2  0
 10 12  1  0
  9 13  2  0
 13 14  1  0
 14 15  1  0
 15 16  1  0
 16 17  1  0
 17 18  1  0
 18 19  1  0
 13  6  1  0
 19 14  1  0
  1 20  1  0
  1 21  1  0
  1 22  1  0
  2 23  1  0
  2 24  1  0
  7 25  1  0
  8 26  1  0
 12 27  1  0
 14 28  1  0
 15 29  1  0
 15 30  1  0
 16 31  1  0
 16 32  1  0
 18 33  1  0
 18 34  1  0
 19 35  1  0
 19 36  1  0
M  END
>  <Energy>  (346) 
79.924121877795045

>  <compound_id>  (346) 
3345

>  <target_id>  (346) 
1

>  <reference_id>  (346) 
93

>  <inspiration_ids>  (346) 
[111, 93]

>  <energy_score>  (346) 
-50.533873840160766

>  <distance_score>  (346) 
1.2816135117848713

>  <path>  (346) 
/opt/xchem-fragalysis-2/maxwin/BulkDock/SCRATCH/505734/C3345-P93/C3345-P93.minimised.mol

>  <scratch_subdir>  (346) 
/opt/xchem-fragalysis-2/maxwin/BulkDock/SCRATCH/505734/C3345-P93

>  <fragmenstein_runtime>  (346) 
105.05370283126831

>  <fragmenstein_outcome>  (346) 
too moved

>  <fragmenstein_mode>  (346) 
expansion

>  <fragmenstein_error>  (346) 


$$$$
C3346-P111
     RDKit          3D

 58 61  0  0  0  0  0  0  0  0999 V2000
   11.7244    2.3994   12.5979 C   0  0  0  0  0  0  0  0  0  0  0  0
   13.0037    3.0909   12.6724 N   0  0  0  0  0  0  0  0  0  0  0  0
   13.7058    2.9937   11.3809 C   0  0  0  0  0  0  0  0  0  0  0  0
   14.4710    1.6703   11.1803 C   0  0  0  0  0  0  0  0  0  0  0  0
   15.4391    1.3641   12.2584 N   0  0  0  0  0  0  0  0  0  0  0  0
   16.4719    2.3893   12.3097 C   0  0  0  0  0  0  0  0  0  0  0  0
   17.1723    2.4034   11.0768 O   0  0  0  0  0  0  0  0  0  0  0  0
   14.6845    1.2451   13.5319 C   0  0  0  0  0  0  0  0  0  0  0  0
   15.6817    0.8435   14.5283 N   0  0  0  0  0  0  0  0  0  0  0  0
   15.2894    0.2500   15.8259 C   0  0  0  0  0  0  0  0  0  0  0  0
   14.6143    1.2723   16.7283 C   0  0  0  0  0  0  0  0  0  0  0  0
   13.1887    0.9344   16.6885 N   0  0  0  0  0  0  0  0  0  0  0  0
   13.1007   -0.1740   15.6790 N   0  0  0  0  0  0  0  0  0  0  0  0
   11.8089   -0.7980   15.8002 C   0  0  0  0  0  0  0  0  0  0  0  0
   11.7511   -2.2857   15.5413 C   0  0  0  0  0  0  0  0  0  0  0  0
   10.4100   -2.6724   15.0238 C   0  0  0  0  0  0  0  0  0  0  0  0
    9.3796   -1.8332   15.5353 O   0  0  0  0  0  0  0  0  0  0  0  0
    9.4448   -0.4766   15.1450 C   0  0  0  0  0  0  0  0  0  0  0  0
   10.8586   -0.0179   14.9013 C   0  0  0  0  0  0  0  0  0  0  0  0
   14.3123   -0.9521   15.8881 C   0  0  0  0  0  0  0  0  0  0  0  0
   14.7947   -2.0754   14.9703 C   0  0  0  0  0  0  0  0  0  0  0  0
   14.8775   -3.2917   15.8807 C   0  0  0  0  0  0  0  0  0  0  0  0
   15.1018   -2.6809   17.2327 C   0  0  0  0  0  0  0  0  0  0  0  0
   14.2899   -1.5117   17.2210 O   0  0  0  0  0  0  0  0  0  0  0  0
   13.8415    2.5666   13.7927 C   0  0  0  0  0  0  0  0  0  0  0  0
   11.8309    1.3275   12.4143 H   0  0  0  0  0  0  0  0  0  0  0  0
   11.1518    2.5595   13.5152 H   0  0  0  0  0  0  0  0  0  0  0  0
   11.1106    2.8188   11.7939 H   0  0  0  0  0  0  0  0  0  0  0  0
   13.0042    3.1348   10.5482 H   0  0  0  0  0  0  0  0  0  0  0  0
   14.3950    3.8423   11.3026 H   0  0  0  0  0  0  0  0  0  0  0  0
   14.9761    1.6907   10.2069 H   0  0  0  0  0  0  0  0  0  0  0  0
   13.7585    0.8401   11.1055 H   0  0  0  0  0  0  0  0  0  0  0  0
   16.1226    3.4047   12.5128 H   0  0  0  0  0  0  0  0  0  0  0  0
   17.2373    2.1609   13.0569 H   0  0  0  0  0  0  0  0  0  0  0  0
   17.2787    1.4566   10.8789 H   0  0  0  0  0  0  0  0  0  0  0  0
   13.9862    0.4143   13.3846 H   0  0  0  0  0  0  0  0  0  0  0  0
   16.2520    1.6560   14.7418 H   0  0  0  0  0  0  0  0  0  0  0  0
   16.2292   -0.0400   16.3151 H   0  0  0  0  0  0  0  0  0  0  0  0
   14.7878    2.3116   16.4320 H   0  0  0  0  0  0  0  0  0  0  0  0
   14.9866    1.1803   17.7568 H   0  0  0  0  0  0  0  0  0  0  0  0
   13.0149    0.5197   17.6110 H   0  0  0  0  0  0  0  0  0  0  0  0
   11.4532   -0.6808   16.8179 H   0  0  0  0  0  0  0  0  0  0  0  0
   11.9807   -2.8348   16.4605 H   0  0  0  0  0  0  0  0  0  0  0  0
   12.4384   -2.6248   14.7741 H   0  0  0  0  0  0  0  0  0  0  0  0
   10.4887   -2.6674   13.9508 H   0  0  0  0  0  0  0  0  0  0  0  0
   10.2213   -3.7127   15.2691 H   0  0  0  0  0  0  0  0  0  0  0  0
    9.0074    0.1035   15.9654 H   0  0  0  0  0  0  0  0  0  0  0  0
    8.8115   -0.2984   14.2770 H   0  0  0  0  0  0  0  0  0  0  0  0
   10.9082    1.0604   15.0807 H   0  0  0  0  0  0  0  0  0  0  0  0
   11.1273   -0.1914   13.8536 H   0  0  0  0  0  0  0  0  0  0  0  0
   14.2063   -2.2091   14.0607 H   0  0  0  0  0  0  0  0  0  0  0  0
   15.8098   -1.8675   14.6061 H   0  0  0  0  0  0  0  0  0  0  0  0
   15.6777   -3.9826   15.6006 H   0  0  0  0  0  0  0  0  0  0  0  0
   13.9384   -3.8487   15.8969 H   0  0  0  0  0  0  0  0  0  0  0  0
   16.1466   -2.3879   17.3824 H   0  0  0  0  0  0  0  0  0  0  0  0
   14.7973   -3.3381   18.0517 H   0  0  0  0  0  0  0  0  0  0  0  0
   13.1965    2.4516   14.6645 H   0  0  0  0  0  0  0  0  0  0  0  0
   14.5350    3.3716   14.0680 H   0  0  0  0  0  0  0  0  0  0  0  0
  1  2  1  0
  2  3  1  0
  3  4  1  0
  4  5  1  0
  5  6  1  0
  6  7  1  0
  5  8  1  0
  8  9  1  0
  9 10  1  0
 10 11  1  0
 11 12  1  0
 12 13  1  0
 13 14  1  0
 14 15  1  0
 15 16  1  0
 16 17  1  0
 17 18  1  0
 18 19  1  0
 13 20  1  0
 20 21  1  0
 21 22  1  0
 22 23  1  0
 23 24  1  0
  8 25  1  0
 25  2  1  0
 20 10  1  0
 19 14  1  0
 24 20  1  0
  1 26  1  0
  1 27  1  0
  1 28  1  0
  3 29  1  0
  3 30  1  0
  4 31  1  0
  4 32  1  0
  6 33  1  0
  6 34  1  0
  7 35  1  0
  8 36  1  0
  9 37  1  0
 10 38  1  0
 11 39  1  0
 11 40  1  0
 12 41  1  0
 14 42  1  0
 15 43  1  0
 15 44  1  0
 16 45  1  0
 16 46  1  0
 18 47  1  0
 18 48  1  0
 19 49  1  0
 19 50  1  0
 21 51  1  0
 21 52  1  0
 22 53  1  0
 22 54  1  0
 23 55  1  0
 23 56  1  0
 25 57  1  0
 25 58  1  0
M  END
>  <Energy>  (347) 
132.58740858457048

>  <compound_id>  (347) 
3346

>  <target_id>  (347) 
1

>  <reference_id>  (347) 
111

>  <inspiration_ids>  (347) 
[111, 98]

>  <energy_score>  (347) 
-69.34877695926787

>  <distance_score>  (347) 
2.7152354105973866

>  <path>  (347) 
/opt/xchem-fragalysis-2/maxwin/BulkDock/SCRATCH/505734/C3346-P111/C3346-P111.minimised.mol

>  <scratch_subdir>  (347) 
/opt/xchem-fragalysis-2/maxwin/BulkDock/SCRATCH/505734/C3346-P111

>  <fragmenstein_runtime>  (347) 
7.906998634338379

>  <fragmenstein_outcome>  (347) 
too moved

>  <fragmenstein_mode>  (347) 
expansion

>  <fragmenstein_error>  (347) 


$$$$
C3346-P98
     RDKit          3D

 58 61  0  0  0  0  0  0  0  0999 V2000
   12.0320    4.5216   13.8703 C   0  0  0  0  0  0  0  0  0  0  0  0
   13.1598    3.8060   13.2929 N   0  0  0  0  0  0  0  0  0  0  0  0
   12.8008    3.0700   12.0747 C   0  0  0  0  0  0  0  0  0  0  0  0
   14.0112    2.3333   11.4272 C   0  0  0  0  0  0  0  0  0  0  0  0
   15.1432    2.0031   12.3337 N   0  0  0  0  0  0  0  0  0  0  0  0
   16.0409    3.1461   12.4292 C   0  0  0  0  0  0  0  0  0  0  0  0
   16.8309    3.1639   11.2506 O   0  0  0  0  0  0  0  0  0  0  0  0
   14.5654    1.6691   13.6498 C   0  0  0  0  0  0  0  0  0  0  0  0
   15.6690    1.0702   14.3971 N   0  0  0  0  0  0  0  0  0  0  0  0
   15.3593    0.1940   15.5621 C   0  0  0  0  0  0  0  0  0  0  0  0
   14.9019    0.9685   16.7901 C   0  0  0  0  0  0  0  0  0  0  0  0
   13.4560    0.7648   16.8548 N   0  0  0  0  0  0  0  0  0  0  0  0
   13.1222    0.0545   15.6116 N   0  0  0  0  0  0  0  0  0  0  0  0
   11.8033   -0.4886   15.6905 C   0  0  0  0  0  0  0  0  0  0  0  0
   11.4523   -1.5114   14.6295 C   0  0  0  0  0  0  0  0  0  0  0  0
   10.2017   -2.1521   15.1723 C   0  0  0  0  0  0  0  0  0  0  0  0
    9.3878   -1.2618   15.9699 O   0  0  0  0  0  0  0  0  0  0  0  0
    9.3755    0.0531   15.4338 C   0  0  0  0  0  0  0  0  0  0  0  0
   10.7669    0.6456   15.5484 C   0  0  0  0  0  0  0  0  0  0  0  0
   14.2345   -0.8575   15.3746 C   0  0  0  0  0  0  0  0  0  0  0  0
   14.3458   -2.0755   16.2960 C   0  0  0  0  0  0  0  0  0  0  0  0
   15.4068   -2.9057   15.5994 C   0  0  0  0  0  0  0  0  0  0  0  0
   15.4706   -2.3358   14.1817 C   0  0  0  0  0  0  0  0  0  0  0  0
   14.3514   -1.4384   14.0669 O   0  0  0  0  0  0  0  0  0  0  0  0
   13.8166    2.9080   14.2788 C   0  0  0  0  0  0  0  0  0  0  0  0
   11.6272    5.2437   13.1529 H   0  0  0  0  0  0  0  0  0  0  0  0
   11.2225    3.8464   14.1693 H   0  0  0  0  0  0  0  0  0  0  0  0
   12.3483    5.0928   14.7500 H   0  0  0  0  0  0  0  0  0  0  0  0
   12.0215    2.3308   12.3058 H   0  0  0  0  0  0  0  0  0  0  0  0
   12.3801    3.7569   11.3303 H   0  0  0  0  0  0  0  0  0  0  0  0
   14.3679    2.9069   10.5622 H   0  0  0  0  0  0  0  0  0  0  0  0
   13.6363    1.3905   11.0140 H   0  0  0  0  0  0  0  0  0  0  0  0
   15.5575    4.1230   12.5190 H   0  0  0  0  0  0  0  0  0  0  0  0
   16.7507    3.0538   13.2577 H   0  0  0  0  0  0  0  0  0  0  0  0
   16.8586    2.2227   11.0097 H   0  0  0  0  0  0  0  0  0  0  0  0
   13.8175    0.9014   13.4284 H   0  0  0  0  0  0  0  0  0  0  0  0
   16.1007    0.4677   13.6945 H   0  0  0  0  0  0  0  0  0  0  0  0
   16.3108   -0.2887   15.8171 H   0  0  0  0  0  0  0  0  0  0  0  0
   15.1636    2.0312   16.7458 H   0  0  0  0  0  0  0  0  0  0  0  0
   15.3592    0.5632   17.6999 H   0  0  0  0  0  0  0  0  0  0  0  0
   12.9995    1.6784   16.9003 H   0  0  0  0  0  0  0  0  0  0  0  0
   11.7089   -0.9665   16.6686 H   0  0  0  0  0  0  0  0  0  0  0  0
   12.1843   -2.3048   14.4680 H   0  0  0  0  0  0  0  0  0  0  0  0
   11.3141   -1.0150   13.6650 H   0  0  0  0  0  0  0  0  0  0  0  0
    9.5612   -2.6380   14.4569 H   0  0  0  0  0  0  0  0  0  0  0  0
   10.5745   -2.9519   15.8194 H   0  0  0  0  0  0  0  0  0  0  0  0
    8.6691    0.6550   16.0112 H   0  0  0  0  0  0  0  0  0  0  0  0
    9.0351    0.0249   14.3956 H   0  0  0  0  0  0  0  0  0  0  0  0
   10.8006    1.3291   16.4020 H   0  0  0  0  0  0  0  0  0  0  0  0
   10.9612    1.2668   14.6645 H   0  0  0  0  0  0  0  0  0  0  0  0
   14.6191   -1.8374   17.3283 H   0  0  0  0  0  0  0  0  0  0  0  0
   13.4181   -2.6565   16.3262 H   0  0  0  0  0  0  0  0  0  0  0  0
   15.1654   -3.9703   15.6296 H   0  0  0  0  0  0  0  0  0  0  0  0
   16.3833   -2.7995   16.0857 H   0  0  0  0  0  0  0  0  0  0  0  0
   15.4475   -3.0632   13.3750 H   0  0  0  0  0  0  0  0  0  0  0  0
   16.3999   -1.7732   14.0344 H   0  0  0  0  0  0  0  0  0  0  0  0
   13.0608    2.5502   14.9763 H   0  0  0  0  0  0  0  0  0  0  0  0
   14.5262    3.5155   14.8536 H   0  0  0  0  0  0  0  0  0  0  0  0
  1  2  1  0
  2  3  1  0
  3  4  1  0
  4  5  1  0
  5  6  1  0
  6  7  1  0
  5  8  1  0
  8  9  1  0
  9 10  1  0
 10 11  1  0
 11 12  1  0
 12 13  1  0
 13 14  1  0
 14 15  1  0
 15 16  1  0
 16 17  1  0
 17 18  1  0
 18 19  1  0
 13 20  1  0
 20 21  1  0
 21 22  1  0
 22 23  1  0
 23 24  1  0
  8 25  1  0
 25  2  1  0
 20 10  1  0
 19 14  1  0
 24 20  1  0
  1 26  1  0
  1 27  1  0
  1 28  1  0
  3 29  1  0
  3 30  1  0
  4 31  1  0
  4 32  1  0
  6 33  1  0
  6 34  1  0
  7 35  1  0
  8 36  1  0
  9 37  1  0
 10 38  1  0
 11 39  1  0
 11 40  1  0
 12 41  1  0
 14 42  1  0
 15 43  1  0
 15 44  1  0
 16 45  1  0
 16 46  1  0
 18 47  1  0
 18 48  1  0
 19 49  1  0
 19 50  1  0
 21 51  1  0
 21 52  1  0
 22 53  1  0
 22 54  1  0
 23 55  1  0
 23 56  1  0
 25 57  1  0
 25 58  1  0
M  END
>  <Energy>  (348) 
126.73157355742076

>  <compound_id>  (348) 
3346

>  <target_id>  (348) 
1

>  <reference_id>  (348) 
98

>  <inspiration_ids>  (348) 
[111, 98]

>  <energy_score>  (348) 
-75.20461198641982

>  <distance_score>  (348) 
2.6206049551364425

>  <path>  (348) 
/opt/xchem-fragalysis-2/maxwin/BulkDock/SCRATCH/505734/C3346-P98/C3346-P98.minimised.mol

>  <scratch_subdir>  (348) 
/opt/xchem-fragalysis-2/maxwin/BulkDock/SCRATCH/505734/C3346-P98

>  <fragmenstein_runtime>  (348) 
10.61055850982666

>  <fragmenstein_outcome>  (348) 
too moved

>  <fragmenstein_mode>  (348) 
expansion

>  <fragmenstein_error>  (348) 


$$$$
C3347-P111
     RDKit          3D

 41 42  0  0  0  0  0  0  0  0999 V2000
   17.0365    1.6356   13.3142 C   0  0  0  0  0  0  0  0  0  0  0  0
   15.8201    1.0936   12.8207 O   0  0  0  0  0  0  0  0  0  0  0  0
   14.6801    1.8920   13.1183 C   0  0  0  0  0  0  0  0  0  0  0  0
   14.8175    3.1544   12.5225 O   0  0  0  0  0  0  0  0  0  0  0  0
   13.6303    1.2937   12.3905 O   0  0  0  0  0  0  0  0  0  0  0  0
   14.3444    1.9905   14.5911 C   0  0  0  0  0  0  0  0  0  0  0  0
   14.1563    3.2233   15.3246 C   0  0  0  0  0  0  0  0  0  0  0  0
   14.2054    4.6021   14.8485 C   0  0  0  0  0  0  0  0  0  0  0  0
   15.5584    5.1990   14.5537 C   0  0  0  0  0  0  0  0  0  0  0  0
   13.1841    5.2836   14.7691 O   0  0  0  0  0  0  0  0  0  0  0  0
   13.9158    2.8916   16.6341 C   0  0  0  0  0  0  0  0  0  0  0  0
   14.0051    1.5351   16.7509 N   0  0  0  0  0  0  0  0  0  0  0  0
   14.0433    0.8997   18.0456 C   0  0  0  0  0  0  0  0  0  0  0  0
   14.1180    0.9464   15.5058 C   0  0  0  0  0  0  0  0  0  0  0  0
   13.9887   -0.5476   15.2507 C   0  0  0  0  0  0  0  0  0  0  0  0
   14.9198   -1.4082   16.1148 C   0  0  0  0  0  0  0  0  0  0  0  0
   14.6201   -2.8842   15.9668 C   0  0  0  0  0  0  0  0  0  0  0  0
   13.2360   -3.1651   16.1581 O   0  0  0  0  0  0  0  0  0  0  0  0
   12.3976   -2.5029   15.2129 C   0  0  0  0  0  0  0  0  0  0  0  0
   12.5216   -0.9970   15.3626 C   0  0  0  0  0  0  0  0  0  0  0  0
   17.8457    0.9552   13.0338 H   0  0  0  0  0  0  0  0  0  0  0  0
   17.0267    1.7139   14.4050 H   0  0  0  0  0  0  0  0  0  0  0  0
   17.2454    2.6106   12.8646 H   0  0  0  0  0  0  0  0  0  0  0  0
   14.0403    3.1613   11.9377 H   0  0  0  0  0  0  0  0  0  0  0  0
   14.1122    0.5686   11.9584 H   0  0  0  0  0  0  0  0  0  0  0  0
   16.3326    4.4292   14.5068 H   0  0  0  0  0  0  0  0  0  0  0  0
   15.5232    5.7211   13.5939 H   0  0  0  0  0  0  0  0  0  0  0  0
   15.8160    5.9046   15.3482 H   0  0  0  0  0  0  0  0  0  0  0  0
   13.7405    3.5270   17.4940 H   0  0  0  0  0  0  0  0  0  0  0  0
   13.4009    0.0253   18.0420 H   0  0  0  0  0  0  0  0  0  0  0  0
   15.0813    0.6428   18.2715 H   0  0  0  0  0  0  0  0  0  0  0  0
   13.6871    1.6009   18.8051 H   0  0  0  0  0  0  0  0  0  0  0  0
   14.2886   -0.7291   14.2092 H   0  0  0  0  0  0  0  0  0  0  0  0
   15.9677   -1.2049   15.8631 H   0  0  0  0  0  0  0  0  0  0  0  0
   14.8165   -1.1993   17.1760 H   0  0  0  0  0  0  0  0  0  0  0  0
   14.9619   -3.2133   14.9867 H   0  0  0  0  0  0  0  0  0  0  0  0
   15.1817   -3.4586   16.7109 H   0  0  0  0  0  0  0  0  0  0  0  0
   12.6512   -2.8146   14.1951 H   0  0  0  0  0  0  0  0  0  0  0  0
   11.3659   -2.8152   15.4043 H   0  0  0  0  0  0  0  0  0  0  0  0
   11.9068   -0.4936   14.6067 H   0  0  0  0  0  0  0  0  0  0  0  0
   12.1169   -0.7107   16.3395 H   0  0  0  0  0  0  0  0  0  0  0  0
  1  2  1  0
  2  3  1  0
  3  4  1  0
  3  5  1  0
  3  6  1  0
  6  7  1  0
  7  8  1  0
  8  9  1  0
  8 10  2  0
  7 11  2  0
 11 12  1  0
 12 13  1  0
 12 14  1  0
 14 15  1  0
 15 16  1  0
 16 17  1  0
 17 18  1  0
 18 19  1  0
 19 20  1  0
 14  6  2  0
 20 15  1  0
  1 21  1  0
  1 22  1  0
  1 23  1  0
  4 24  1  0
  5 25  1  0
  9 26  1  0
  9 27  1  0
  9 28  1  0
 11 29  1  0
 13 30  1  0
 13 31  1  0
 13 32  1  0
 15 33  1  0
 16 34  1  0
 16 35  1  0
 17 36  1  0
 17 37  1  0
 19 38  1  0
 19 39  1  0
 20 40  1  0
 20 41  1  0
M  END
>  <Energy>  (349) 
-39.313142970240229

>  <compound_id>  (349) 
3347

>  <target_id>  (349) 
1

>  <reference_id>  (349) 
111

>  <inspiration_ids>  (349) 
[111, 103]

>  <energy_score>  (349) 
-48.83658836993348

>  <distance_score>  (349) 
1.3428260526389555

>  <path>  (349) 
/opt/xchem-fragalysis-2/maxwin/BulkDock/SCRATCH/505734/C3347-P111/C3347-P111.minimised.mol

>  <scratch_subdir>  (349) 
/opt/xchem-fragalysis-2/maxwin/BulkDock/SCRATCH/505734/C3347-P111

>  <fragmenstein_runtime>  (349) 
37.72093176841736

>  <fragmenstein_outcome>  (349) 
too moved

>  <fragmenstein_mode>  (349) 
expansion

>  <fragmenstein_error>  (349) 


$$$$
C3347-P103
     RDKit          3D

 41 42  0  0  0  0  0  0  0  0999 V2000
   16.9201    1.2869   13.4883 C   0  0  0  0  0  0  0  0  0  0  0  0
   15.6682    0.9439   12.9101 O   0  0  0  0  0  0  0  0  0  0  0  0
   14.6558    1.9323   13.1163 C   0  0  0  0  0  0  0  0  0  0  0  0
   15.1331    3.1534   12.6138 O   0  0  0  0  0  0  0  0  0  0  0  0
   13.6026    1.5450   12.2626 O   0  0  0  0  0  0  0  0  0  0  0  0
   14.1779    2.0261   14.5633 C   0  0  0  0  0  0  0  0  0  0  0  0
   13.7474    3.2287   15.2607 C   0  0  0  0  0  0  0  0  0  0  0  0
   13.4943    4.5677   14.7179 C   0  0  0  0  0  0  0  0  0  0  0  0
   13.3144    5.7193   15.6767 C   0  0  0  0  0  0  0  0  0  0  0  0
   13.3964    4.7566   13.5041 O   0  0  0  0  0  0  0  0  0  0  0  0
   13.6018    2.8867   16.5858 C   0  0  0  0  0  0  0  0  0  0  0  0
   13.8777    1.5575   16.7196 N   0  0  0  0  0  0  0  0  0  0  0  0
   14.0405    0.9419   18.0137 C   0  0  0  0  0  0  0  0  0  0  0  0
   14.0083    0.9719   15.4794 C   0  0  0  0  0  0  0  0  0  0  0  0
   13.9462   -0.5241   15.2297 C   0  0  0  0  0  0  0  0  0  0  0  0
   14.9208   -1.3463   16.0791 C   0  0  0  0  0  0  0  0  0  0  0  0
   14.6998   -2.8285   15.8764 C   0  0  0  0  0  0  0  0  0  0  0  0
   13.3365   -3.1885   16.1004 O   0  0  0  0  0  0  0  0  0  0  0  0
   12.4385   -2.5419   15.1975 C   0  0  0  0  0  0  0  0  0  0  0  0
   12.5016   -1.0359   15.3779 C   0  0  0  0  0  0  0  0  0  0  0  0
   17.5977    0.4401   13.3462 H   0  0  0  0  0  0  0  0  0  0  0  0
   16.8351    1.4739   14.5623 H   0  0  0  0  0  0  0  0  0  0  0  0
   17.3595    2.1544   12.9872 H   0  0  0  0  0  0  0  0  0  0  0  0
   14.3340    3.7171   12.5946 H   0  0  0  0  0  0  0  0  0  0  0  0
   14.1094    1.1169   11.5552 H   0  0  0  0  0  0  0  0  0  0  0  0
   14.1683    5.7811   16.3567 H   0  0  0  0  0  0  0  0  0  0  0  0
   13.2583    6.6563   15.1143 H   0  0  0  0  0  0  0  0  0  0  0  0
   12.3864    5.5944   16.2409 H   0  0  0  0  0  0  0  0  0  0  0  0
   13.3296    3.4853   17.4473 H   0  0  0  0  0  0  0  0  0  0  0  0
   13.4116    0.0587   18.0776 H   0  0  0  0  0  0  0  0  0  0  0  0
   15.0982    0.7030   18.1502 H   0  0  0  0  0  0  0  0  0  0  0  0
   13.7473    1.6489   18.7944 H   0  0  0  0  0  0  0  0  0  0  0  0
   14.2236   -0.6984   14.1818 H   0  0  0  0  0  0  0  0  0  0  0  0
   15.9570   -1.0769   15.8433 H   0  0  0  0  0  0  0  0  0  0  0  0
   14.7875   -1.1786   17.1449 H   0  0  0  0  0  0  0  0  0  0  0  0
   15.0242   -3.0937   14.8692 H   0  0  0  0  0  0  0  0  0  0  0  0
   15.3144   -3.4021   16.5778 H   0  0  0  0  0  0  0  0  0  0  0  0
   12.6738   -2.8196   14.1650 H   0  0  0  0  0  0  0  0  0  0  0  0
   11.4285   -2.9045   15.4137 H   0  0  0  0  0  0  0  0  0  0  0  0
   11.8416   -0.5438   14.6534 H   0  0  0  0  0  0  0  0  0  0  0  0
   12.1198   -0.7878   16.3748 H   0  0  0  0  0  0  0  0  0  0  0  0
  1  2  1  0
  2  3  1  0
  3  4  1  0
  3  5  1  0
  3  6  1  0
  6  7  1  0
  7  8  1  0
  8  9  1  0
  8 10  2  0
  7 11  2  0
 11 12  1  0
 12 13  1  0
 12 14  1  0
 14 15  1  0
 15 16  1  0
 16 17  1  0
 17 18  1  0
 18 19  1  0
 19 20  1  0
 14  6  2  0
 20 15  1  0
  1 21  1  0
  1 22  1  0
  1 23  1  0
  4 24  1  0
  5 25  1  0
  9 26  1  0
  9 27  1  0
  9 28  1  0
 11 29  1  0
 13 30  1  0
 13 31  1  0
 13 32  1  0
 15 33  1  0
 16 34  1  0
 16 35  1  0
 17 36  1  0
 17 37  1  0
 19 38  1  0
 19 39  1  0
 20 40  1  0
 20 41  1  0
M  END
>  <Energy>  (350) 
-45.570691045407429

>  <compound_id>  (350) 
3347

>  <target_id>  (350) 
1

>  <reference_id>  (350) 
103

>  <inspiration_ids>  (350) 
[111, 103]

>  <energy_score>  (350) 
-55.09413644510198

>  <distance_score>  (350) 
1.3436488414496413

>  <path>  (350) 
/opt/xchem-fragalysis-2/maxwin/BulkDock/SCRATCH/505734/C3347-P103/C3347-P103.minimised.mol

>  <scratch_subdir>  (350) 
/opt/xchem-fragalysis-2/maxwin/BulkDock/SCRATCH/505734/C3347-P103

>  <fragmenstein_runtime>  (350) 
37.618732213974

>  <fragmenstein_outcome>  (350) 
too moved

>  <fragmenstein_mode>  (350) 
expansion

>  <fragmenstein_error>  (350) 


$$$$
C3349-P111
     RDKit          3D

 47 47  0  0  0  0  0  0  0  0999 V2000
   16.1022    1.5279   11.0463 C   0  0  0  0  0  0  0  0  0  0  0  0
   15.3907    0.2980   11.1010 O   0  0  0  0  0  0  0  0  0  0  0  0
   15.4467   -0.1318   12.5005 O   0  0  0  0  0  0  0  0  0  0  0  0
   14.2109    0.1135   13.0639 C   0  0  0  0  0  0  0  0  0  0  0  0
   13.2755    0.6622   12.4942 O   0  0  0  0  0  0  0  0  0  0  0  0
   14.2251   -0.4023   14.5239 C   0  0  0  0  0  0  0  0  0  0  0  0
   15.2692    0.3015   15.3128 N   0  0  0  0  0  0  0  0  0  0  0  0
   12.8313   -0.3694   15.2503 C   0  0  0  0  0  0  0  0  0  0  0  0
   12.3418    1.0686   15.7438 C   0  0  0  0  0  0  0  0  0  0  0  0
   10.8063    1.1986   15.8076 C   0  0  0  0  0  0  0  0  0  0  0  0
   12.8955    2.3048   15.0049 C   0  0  0  0  0  0  0  0  0  0  0  0
   12.7363    3.6664   15.7075 C   0  0  0  0  0  0  0  0  0  0  0  0
   13.5937    3.9821   16.9537 C   0  0  0  0  0  0  0  0  0  0  0  0
   13.0075    3.4380   18.2559 C   0  0  0  0  0  0  0  0  0  0  0  0
   15.0616    3.5841   16.8151 C   0  0  0  0  0  0  0  0  0  0  0  0
   12.9186   -1.2968   16.4945 C   0  0  0  0  0  0  0  0  0  0  0  0
   12.7423   -2.7234   15.9973 C   0  0  0  0  0  0  0  0  0  0  0  0
   12.2633   -2.5809   14.6267 N   0  0  0  0  0  0  0  0  0  0  0  0
   11.7956   -1.2012   14.4646 C   0  0  0  0  0  0  0  0  0  0  0  0
   16.1136    1.8757   10.0104 H   0  0  0  0  0  0  0  0  0  0  0  0
   15.6090    2.2813   11.6672 H   0  0  0  0  0  0  0  0  0  0  0  0
   17.1326    1.3796   11.3823 H   0  0  0  0  0  0  0  0  0  0  0  0
   14.5624   -1.4439   14.4382 H   0  0  0  0  0  0  0  0  0  0  0  0
   15.3895   -0.1633   16.2110 H   0  0  0  0  0  0  0  0  0  0  0  0
   16.1651    0.1909   14.8340 H   0  0  0  0  0  0  0  0  0  0  0  0
   12.7152    1.1518   16.7666 H   0  0  0  0  0  0  0  0  0  0  0  0
   10.3739    1.2575   14.8027 H   0  0  0  0  0  0  0  0  0  0  0  0
   10.3411    0.3560   16.3243 H   0  0  0  0  0  0  0  0  0  0  0  0
   10.5015    2.0962   16.3536 H   0  0  0  0  0  0  0  0  0  0  0  0
   13.9502    2.2108   14.7553 H   0  0  0  0  0  0  0  0  0  0  0  0
   12.3734    2.3860   14.0429 H   0  0  0  0  0  0  0  0  0  0  0  0
   11.6818    3.8658   15.9272 H   0  0  0  0  0  0  0  0  0  0  0  0
   13.0075    4.4200   14.9533 H   0  0  0  0  0  0  0  0  0  0  0  0
   13.5711    5.0770   17.0520 H   0  0  0  0  0  0  0  0  0  0  0  0
   11.9284    3.6126   18.3110 H   0  0  0  0  0  0  0  0  0  0  0  0
   13.4671    3.9415   19.1142 H   0  0  0  0  0  0  0  0  0  0  0  0
   13.1964    2.3700   18.3809 H   0  0  0  0  0  0  0  0  0  0  0  0
   15.1900    2.5010   16.8721 H   0  0  0  0  0  0  0  0  0  0  0  0
   15.6540    4.0247   17.6245 H   0  0  0  0  0  0  0  0  0  0  0  0
   15.4782    3.9387   15.8670 H   0  0  0  0  0  0  0  0  0  0  0  0
   12.0752   -1.0652   17.1343 H   0  0  0  0  0  0  0  0  0  0  0  0
   13.8240   -1.1771   17.0944 H   0  0  0  0  0  0  0  0  0  0  0  0
   12.0296   -3.2757   16.6160 H   0  0  0  0  0  0  0  0  0  0  0  0
   13.6920   -3.2665   16.0055 H   0  0  0  0  0  0  0  0  0  0  0  0
   11.5178   -3.2446   14.4139 H   0  0  0  0  0  0  0  0  0  0  0  0
   11.7281   -0.9318   13.4133 H   0  0  0  0  0  0  0  0  0  0  0  0
   10.7875   -1.1449   14.8847 H   0  0  0  0  0  0  0  0  0  0  0  0
  1  2  1  0
  2  3  1  0
  3  4  1  0
  4  5  2  0
  4  6  1  0
  6  7  1  0
  6  8  1  0
  8  9  1  0
  9 10  1  0
  9 11  1  0
 11 12  1  0
 12 13  1  0
 13 14  1  0
 13 15  1  0
  8 16  1  0
 16 17  1  0
 17 18  1  0
 18 19  1  0
 19  8  1  0
  1 20  1  0
  1 21  1  0
  1 22  1  0
  6 23  1  0
  7 24  1  0
  7 25  1  0
  9 26  1  0
 10 27  1  0
 10 28  1  0
 10 29  1  0
 11 30  1  0
 11 31  1  0
 12 32  1  0
 12 33  1  0
 13 34  1  0
 14 35  1  0
 14 36  1  0
 14 37  1  0
 15 38  1  0
 15 39  1  0
 15 40  1  0
 16 41  1  0
 16 42  1  0
 17 43  1  0
 17 44  1  0
 18 45  1  0
 19 46  1  0
 19 47  1  0
M  END
>  <Energy>  (351) 
110.33336358384315

>  <compound_id>  (351) 
3349

>  <target_id>  (351) 
1

>  <reference_id>  (351) 
111

>  <inspiration_ids>  (351) 
[111, 113]

>  <energy_score>  (351) 
-46.746572347849394

>  <distance_score>  (351) 
1.3669188460921384

>  <path>  (351) 
/opt/xchem-fragalysis-2/maxwin/BulkDock/SCRATCH/505734/C3349-P111/C3349-P111.minimised.mol

>  <scratch_subdir>  (351) 
/opt/xchem-fragalysis-2/maxwin/BulkDock/SCRATCH/505734/C3349-P111

>  <fragmenstein_runtime>  (351) 
8.20114517211914

>  <fragmenstein_outcome>  (351) 
too moved

>  <fragmenstein_mode>  (351) 
expansion

>  <fragmenstein_error>  (351) 


$$$$
C3349-P113
     RDKit          3D

 47 47  0  0  0  0  0  0  0  0999 V2000
   16.1668   -1.5281   11.2404 C   0  0  0  0  0  0  0  0  0  0  0  0
   14.9480   -0.8085   11.3801 O   0  0  0  0  0  0  0  0  0  0  0  0
   14.4173   -1.1872   12.6919 O   0  0  0  0  0  0  0  0  0  0  0  0
   14.7087   -0.1746   13.5707 C   0  0  0  0  0  0  0  0  0  0  0  0
   15.3104    0.8586   13.2896 O   0  0  0  0  0  0  0  0  0  0  0  0
   14.2704   -0.5603   14.9988 C   0  0  0  0  0  0  0  0  0  0  0  0
   15.1462    0.0982   16.0073 N   0  0  0  0  0  0  0  0  0  0  0  0
   12.7519   -0.3667   15.3601 C   0  0  0  0  0  0  0  0  0  0  0  0
   12.3083    1.0906   15.8097 C   0  0  0  0  0  0  0  0  0  0  0  0
   10.7746    1.2969   15.7942 C   0  0  0  0  0  0  0  0  0  0  0  0
   12.9559    2.2759   15.0674 C   0  0  0  0  0  0  0  0  0  0  0  0
   12.8858    3.6276   15.8064 C   0  0  0  0  0  0  0  0  0  0  0  0
   13.9809    3.9483   16.8523 C   0  0  0  0  0  0  0  0  0  0  0  0
   14.0008    3.0227   18.0629 C   0  0  0  0  0  0  0  0  0  0  0  0
   15.3807    4.0329   16.2463 C   0  0  0  0  0  0  0  0  0  0  0  0
   12.4768   -1.3250   16.5465 C   0  0  0  0  0  0  0  0  0  0  0  0
   12.2311   -2.6941   15.9418 C   0  0  0  0  0  0  0  0  0  0  0  0
   12.1048   -2.4606   14.5029 N   0  0  0  0  0  0  0  0  0  0  0  0
   11.8329   -1.0331   14.3222 C   0  0  0  0  0  0  0  0  0  0  0  0
   16.8794   -1.2310   12.0151 H   0  0  0  0  0  0  0  0  0  0  0  0
   15.9746   -2.6029   11.2996 H   0  0  0  0  0  0  0  0  0  0  0  0
   16.5949   -1.2973   10.2618 H   0  0  0  0  0  0  0  0  0  0  0  0
   14.5381   -1.6228   15.0823 H   0  0  0  0  0  0  0  0  0  0  0  0
   16.0377   -0.3998   16.0301 H   0  0  0  0  0  0  0  0  0  0  0  0
   15.4039    1.0194   15.6480 H   0  0  0  0  0  0  0  0  0  0  0  0
   12.6123    1.1708   16.8567 H   0  0  0  0  0  0  0  0  0  0  0  0
   10.4043    1.4179   14.7707 H   0  0  0  0  0  0  0  0  0  0  0  0
   10.2313    0.4648   16.2493 H   0  0  0  0  0  0  0  0  0  0  0  0
   10.4851    2.1899   16.3555 H   0  0  0  0  0  0  0  0  0  0  0  0
   13.9953    2.1058   14.8211 H   0  0  0  0  0  0  0  0  0  0  0  0
   12.4496    2.3885   14.0992 H   0  0  0  0  0  0  0  0  0  0  0  0
   11.9067    3.7620   16.2766 H   0  0  0  0  0  0  0  0  0  0  0  0
   12.9430    4.4116   15.0382 H   0  0  0  0  0  0  0  0  0  0  0  0
   13.7424    4.9523   17.2308 H   0  0  0  0  0  0  0  0  0  0  0  0
   12.9982    2.8850   18.4688 H   0  0  0  0  0  0  0  0  0  0  0  0
   14.6229    3.4489   18.8580 H   0  0  0  0  0  0  0  0  0  0  0  0
   14.4161    2.0415   17.8236 H   0  0  0  0  0  0  0  0  0  0  0  0
   15.7516    3.0630   15.9110 H   0  0  0  0  0  0  0  0  0  0  0  0
   16.0942    4.4204   16.9820 H   0  0  0  0  0  0  0  0  0  0  0  0
   15.3909    4.7136   15.3885 H   0  0  0  0  0  0  0  0  0  0  0  0
   11.5639   -1.0137   17.0387 H   0  0  0  0  0  0  0  0  0  0  0  0
   13.2725   -1.3406   17.2976 H   0  0  0  0  0  0  0  0  0  0  0  0
   11.3210   -3.1483   16.3365 H   0  0  0  0  0  0  0  0  0  0  0  0
   13.0608   -3.3680   16.1658 H   0  0  0  0  0  0  0  0  0  0  0  0
   11.3438   -3.0194   14.1089 H   0  0  0  0  0  0  0  0  0  0  0  0
   12.0247   -0.7030   13.2989 H   0  0  0  0  0  0  0  0  0  0  0  0
   10.7694   -0.8680   14.5193 H   0  0  0  0  0  0  0  0  0  0  0  0
  1  2  1  0
  2  3  1  0
  3  4  1  0
  4  5  2  0
  4  6  1  0
  6  7  1  0
  6  8  1  0
  8  9  1  0
  9 10  1  0
  9 11  1  0
 11 12  1  0
 12 13  1  0
 13 14  1  0
 13 15  1  0
  8 16  1  0
 16 17  1  0
 17 18  1  0
 18 19  1  0
 19  8  1  0
  1 20  1  0
  1 21  1  0
  1 22  1  0
  6 23  1  0
  7 24  1  0
  7 25  1  0
  9 26  1  0
 10 27  1  0
 10 28  1  0
 10 29  1  0
 11 30  1  0
 11 31  1  0
 12 32  1  0
 12 33  1  0
 13 34  1  0
 14 35  1  0
 14 36  1  0
 14 37  1  0
 15 38  1  0
 15 39  1  0
 15 40  1  0
 16 41  1  0
 16 42  1  0
 17 43  1  0
 17 44  1  0
 18 45  1  0
 19 46  1  0
 19 47  1  0
M  END
>  <Energy>  (352) 
107.97811985466976

>  <compound_id>  (352) 
3349

>  <target_id>  (352) 
1

>  <reference_id>  (352) 
113

>  <inspiration_ids>  (352) 
[111, 113]

>  <energy_score>  (352) 
-49.10181607702293

>  <distance_score>  (352) 
1.5506547834541062

>  <path>  (352) 
/opt/xchem-fragalysis-2/maxwin/BulkDock/SCRATCH/505734/C3349-P113/C3349-P113.minimised.mol

>  <scratch_subdir>  (352) 
/opt/xchem-fragalysis-2/maxwin/BulkDock/SCRATCH/505734/C3349-P113

>  <fragmenstein_runtime>  (352) 
8.338976383209229

>  <fragmenstein_outcome>  (352) 
too moved

>  <fragmenstein_mode>  (352) 
expansion

>  <fragmenstein_error>  (352) 


$$$$
C1417-P111
     RDKit          3D

 48 50  0  0  0  0  0  0  0  0999 V2000
   15.8241    1.3302   17.1558 N   0  0  0  0  0  0  0  0  0  0  0  0
   15.3446    0.4312   16.0903 C   0  0  0  0  0  0  0  0  0  0  0  0
   15.2953   -1.0055   16.5755 C   0  0  0  0  0  0  0  0  0  0  0  0
   16.3710   -1.5727   17.2729 C   0  0  0  0  0  0  0  0  0  0  0  0
   16.2624   -2.8416   17.8373 C   0  0  0  0  0  0  0  0  0  0  0  0
   15.0811   -3.5650   17.7053 C   0  0  0  0  0  0  0  0  0  0  0  0
   14.0171   -3.0453   16.9762 C   0  0  0  0  0  0  0  0  0  0  0  0
   14.1260   -1.7737   16.4141 C   0  0  0  0  0  0  0  0  0  0  0  0
   16.0897    0.6902   14.7941 C   0  0  0  0  0  0  0  0  0  0  0  0
   17.4918    0.8175   14.7837 C   0  0  0  0  0  0  0  0  0  0  0  0
   18.1812    1.1441   13.6122 C   0  0  0  0  0  0  0  0  0  0  0  0
   17.4857    1.3521   12.4237 C   0  0  0  0  0  0  0  0  0  0  0  0
   16.0992    1.2199   12.4015 C   0  0  0  0  0  0  0  0  0  0  0  0
   15.4086    0.8857   13.5759 C   0  0  0  0  0  0  0  0  0  0  0  0
   13.9485    0.6524   13.4667 C   0  0  0  0  0  0  0  0  0  0  0  0
   13.5807   -0.4818   13.6054 O   0  0  0  0  0  0  0  0  0  0  0  0
   13.2215    1.8251   13.1171 N   0  0  0  0  0  0  0  0  0  0  0  0
   11.7939    2.0022   12.7023 C   0  0  0  0  0  0  0  0  0  0  0  0
   10.8085    0.9896   13.2891 C   0  0  0  0  0  0  0  0  0  0  0  0
   10.5303    1.2950   14.7430 C   0  0  0  0  0  0  0  0  0  0  0  0
    9.9121    0.1034   15.4804 C   0  0  0  0  0  0  0  0  0  0  0  0
    8.7573   -0.4096   14.8321 O   0  0  0  0  0  0  0  0  0  0  0  0
   11.8353    1.7327   15.3763 C   0  0  0  0  0  0  0  0  0  0  0  0
   12.7104    2.5276   14.3809 C   0  0  0  0  0  0  0  0  0  0  0  0
   15.6573    2.2931   16.8771 H   0  0  0  0  0  0  0  0  0  0  0  0
   15.2701    1.1593   17.9935 H   0  0  0  0  0  0  0  0  0  0  0  0
   14.3162    0.7481   15.9618 H   0  0  0  0  0  0  0  0  0  0  0  0
   17.2877   -1.0062   17.4197 H   0  0  0  0  0  0  0  0  0  0  0  0
   17.0930   -3.2551   18.4034 H   0  0  0  0  0  0  0  0  0  0  0  0
   14.9981   -4.5293   18.1898 H   0  0  0  0  0  0  0  0  0  0  0  0
   13.1003   -3.6182   16.8630 H   0  0  0  0  0  0  0  0  0  0  0  0
   13.2759   -1.3808   15.8635 H   0  0  0  0  0  0  0  0  0  0  0  0
   18.0557    0.6794   15.7048 H   0  0  0  0  0  0  0  0  0  0  0  0
   19.2643    1.2385   13.6329 H   0  0  0  0  0  0  0  0  0  0  0  0
   18.0250    1.6017   11.5139 H   0  0  0  0  0  0  0  0  0  0  0  0
   15.5576    1.3507   11.4683 H   0  0  0  0  0  0  0  0  0  0  0  0
   11.8514    1.7216   11.6390 H   0  0  0  0  0  0  0  0  0  0  0  0
   11.4197    3.0367   12.6302 H   0  0  0  0  0  0  0  0  0  0  0  0
    9.8758    1.0120   12.7314 H   0  0  0  0  0  0  0  0  0  0  0  0
   11.2078   -0.0225   13.1852 H   0  0  0  0  0  0  0  0  0  0  0  0
    9.8358    2.1415   14.7881 H   0  0  0  0  0  0  0  0  0  0  0  0
   10.6276   -0.7182   15.5951 H   0  0  0  0  0  0  0  0  0  0  0  0
    9.6058    0.4227   16.4800 H   0  0  0  0  0  0  0  0  0  0  0  0
    9.0625   -0.8946   14.0253 H   0  0  0  0  0  0  0  0  0  0  0  0
   12.3634    0.8486   15.7327 H   0  0  0  0  0  0  0  0  0  0  0  0
   11.6367    2.3481   16.2620 H   0  0  0  0  0  0  0  0  0  0  0  0
   13.6365    2.7367   14.9386 H   0  0  0  0  0  0  0  0  0  0  0  0
   12.3432    3.5538   14.2066 H   0  0  0  0  0  0  0  0  0  0  0  0
  1  2  1  0
  2  3  1  0
  3  4  2  0
  4  5  1  0
  5  6  2  0
  6  7  1  0
  7  8  2  0
  2  9  1  0
  9 10  2  0
 10 11  1  0
 11 12  2  0
 12 13  1  0
 13 14  2  0
 14 15  1  0
 15 16  2  0
 15 17  1  0
 17 18  1  0
 18 19  1  0
 19 20  1  0
 20 21  1  0
 21 22  1  0
 20 23  1  0
 23 24  1  0
  8  3  1  0
 14  9  1  0
 24 17  1  0
  1 25  1  0
  1 26  1  0
  2 27  1  0
  4 28  1  0
  5 29  1  0
  6 30  1  0
  7 31  1  0
  8 32  1  0
 10 33  1  0
 11 34  1  0
 12 35  1  0
 13 36  1  0
 18 37  1  0
 18 38  1  0
 19 39  1  0
 19 40  1  0
 20 41  1  0
 21 42  1  0
 21 43  1  0
 22 44  1  0
 23 45  1  0
 23 46  1  0
 24 47  1  0
 24 48  1  0
M  END
>  <Energy>  (353) 
114.54890579988033

>  <compound_id>  (353) 
1417

>  <target_id>  (353) 
1

>  <reference_id>  (353) 
111

>  <inspiration_ids>  (353) 
[111, 114]

>  <energy_score>  (353) 
26.687335513540972

>  <distance_score>  (353) 
2.704003642202012

>  <path>  (353) 
/opt/xchem-fragalysis-2/maxwin/BulkDock/SCRATCH/505734/C1417-P111/C1417-P111.minimised.mol

>  <scratch_subdir>  (353) 
/opt/xchem-fragalysis-2/maxwin/BulkDock/SCRATCH/505734/C1417-P111

>  <fragmenstein_runtime>  (353) 
12.387901782989502

>  <fragmenstein_outcome>  (353) 
too moved

>  <fragmenstein_mode>  (353) 
expansion

>  <fragmenstein_error>  (353) 


$$$$
C1417-P114
     RDKit          3D

 48 50  0  0  0  0  0  0  0  0999 V2000
   13.3667    1.5267   15.1351 N   0  0  0  0  0  0  0  0  0  0  0  0
   14.2646    0.3759   15.1160 C   0  0  0  0  0  0  0  0  0  0  0  0
   13.5617   -0.9378   15.4249 C   0  0  0  0  0  0  0  0  0  0  0  0
   14.0206   -1.7279   16.4988 C   0  0  0  0  0  0  0  0  0  0  0  0
   13.3992   -2.9317   16.8285 C   0  0  0  0  0  0  0  0  0  0  0  0
   12.3051   -3.3657   16.0911 C   0  0  0  0  0  0  0  0  0  0  0  0
   11.8381   -2.6006   15.0242 C   0  0  0  0  0  0  0  0  0  0  0  0
   12.4628   -1.3959   14.6887 C   0  0  0  0  0  0  0  0  0  0  0  0
   15.2655    0.3184   13.9692 C   0  0  0  0  0  0  0  0  0  0  0  0
   16.4954   -0.3282   14.2720 C   0  0  0  0  0  0  0  0  0  0  0  0
   17.5420   -0.4228   13.3541 C   0  0  0  0  0  0  0  0  0  0  0  0
   17.3959    0.1274   12.0933 C   0  0  0  0  0  0  0  0  0  0  0  0
   16.1995    0.7575   11.7586 C   0  0  0  0  0  0  0  0  0  0  0  0
   15.1255    0.8589   12.6750 C   0  0  0  0  0  0  0  0  0  0  0  0
   13.8849    1.5112   12.1210 C   0  0  0  0  0  0  0  0  0  0  0  0
   12.8318    1.0120   12.2718 O   0  0  0  0  0  0  0  0  0  0  0  0
   14.2830    2.7447   11.3295 N   0  0  0  0  0  0  0  0  0  0  0  0
   13.4691    3.6344   10.4219 C   0  0  0  0  0  0  0  0  0  0  0  0
   11.9785    3.8073   10.7243 C   0  0  0  0  0  0  0  0  0  0  0  0
   11.8132    4.6949   11.9447 C   0  0  0  0  0  0  0  0  0  0  0  0
   10.4133    4.6200   12.5538 C   0  0  0  0  0  0  0  0  0  0  0  0
    9.9547    3.2802   12.6882 O   0  0  0  0  0  0  0  0  0  0  0  0
   12.8995    4.3055   12.9331 C   0  0  0  0  0  0  0  0  0  0  0  0
   14.2138    3.9988   12.1917 C   0  0  0  0  0  0  0  0  0  0  0  0
   12.7277    1.4176   15.9211 H   0  0  0  0  0  0  0  0  0  0  0  0
   13.9144    2.3605   15.3286 H   0  0  0  0  0  0  0  0  0  0  0  0
   14.8874    0.5793   16.0015 H   0  0  0  0  0  0  0  0  0  0  0  0
   14.8683   -1.4046   17.0990 H   0  0  0  0  0  0  0  0  0  0  0  0
   13.7557   -3.5220   17.6683 H   0  0  0  0  0  0  0  0  0  0  0  0
   11.8118   -4.2992   16.3488 H   0  0  0  0  0  0  0  0  0  0  0  0
   10.9834   -2.9374   14.4430 H   0  0  0  0  0  0  0  0  0  0  0  0
   12.0773   -0.8140   13.8524 H   0  0  0  0  0  0  0  0  0  0  0  0
   16.6472   -0.7729   15.2552 H   0  0  0  0  0  0  0  0  0  0  0  0
   18.4635   -0.9294   13.6285 H   0  0  0  0  0  0  0  0  0  0  0  0
   18.1985    0.0561   11.3647 H   0  0  0  0  0  0  0  0  0  0  0  0
   16.0940    1.1507   10.7487 H   0  0  0  0  0  0  0  0  0  0  0  0
   13.4623    3.0180    9.5078 H   0  0  0  0  0  0  0  0  0  0  0  0
   13.9755    4.5414   10.0483 H   0  0  0  0  0  0  0  0  0  0  0  0
   11.4727    4.2629    9.8646 H   0  0  0  0  0  0  0  0  0  0  0  0
   11.5241    2.8208   10.8660 H   0  0  0  0  0  0  0  0  0  0  0  0
   11.9992    5.7363   11.6487 H   0  0  0  0  0  0  0  0  0  0  0  0
   10.3810    5.1012   13.5367 H   0  0  0  0  0  0  0  0  0  0  0  0
    9.6989    5.1386   11.9061 H   0  0  0  0  0  0  0  0  0  0  0  0
   10.6531    2.7517   13.1273 H   0  0  0  0  0  0  0  0  0  0  0  0
   12.5918    3.4417   13.5242 H   0  0  0  0  0  0  0  0  0  0  0  0
   13.0629    5.1233   13.6454 H   0  0  0  0  0  0  0  0  0  0  0  0
   14.9137    3.7522   13.0069 H   0  0  0  0  0  0  0  0  0  0  0  0
   14.7069    4.8899   11.7648 H   0  0  0  0  0  0  0  0  0  0  0  0
  1  2  1  0
  2  3  1  0
  3  4  2  0
  4  5  1  0
  5  6  2  0
  6  7  1  0
  7  8  2  0
  2  9  1  0
  9 10  2  0
 10 11  1  0
 11 12  2  0
 12 13  1  0
 13 14  2  0
 14 15  1  0
 15 16  2  0
 15 17  1  0
 17 18  1  0
 18 19  1  0
 19 20  1  0
 20 21  1  0
 21 22  1  0
 20 23  1  0
 23 24  1  0
  8  3  1  0
 14  9  1  0
 24 17  1  0
  1 25  1  0
  1 26  1  0
  2 27  1  0
  4 28  1  0
  5 29  1  0
  6 30  1  0
  7 31  1  0
  8 32  1  0
 10 33  1  0
 11 34  1  0
 12 35  1  0
 13 36  1  0
 18 37  1  0
 18 38  1  0
 19 39  1  0
 19 40  1  0
 20 41  1  0
 21 42  1  0
 21 43  1  0
 22 44  1  0
 23 45  1  0
 23 46  1  0
 24 47  1  0
 24 48  1  0
M  END
>  <Energy>  (354) 
131.6432679648822

>  <compound_id>  (354) 
1417

>  <target_id>  (354) 
1

>  <reference_id>  (354) 
114

>  <inspiration_ids>  (354) 
[111, 114]

>  <energy_score>  (354) 
53.05315239676415

>  <distance_score>  (354) 
2.6871877840876532

>  <path>  (354) 
/opt/xchem-fragalysis-2/maxwin/BulkDock/SCRATCH/505734/C1417-P114/C1417-P114.minimised.mol

>  <scratch_subdir>  (354) 
/opt/xchem-fragalysis-2/maxwin/BulkDock/SCRATCH/505734/C1417-P114

>  <fragmenstein_runtime>  (354) 
12.12137484550476

>  <fragmenstein_outcome>  (354) 
too moved

>  <fragmenstein_mode>  (354) 
expansion

>  <fragmenstein_error>  (354) 


$$$$
C1674-P111
     RDKit          3D

 39 41  0  0  0  0  0  0  0  0999 V2000
    9.5018   -0.9147   16.0105 O   0  0  0  0  0  0  0  0  0  0  0  0
   10.4314   -1.1040   15.2254 C   0  0  0  0  0  0  0  0  0  0  0  0
   11.0825   -2.4721   15.0826 C   0  0  0  0  0  0  0  0  0  0  0  0
   12.5156   -2.3344   15.4756 C   0  0  0  0  0  0  0  0  0  0  0  0
   13.1853   -3.2674   16.2682 C   0  0  0  0  0  0  0  0  0  0  0  0
   14.5333   -3.0689   16.5565 C   0  0  0  0  0  0  0  0  0  0  0  0
   15.2174   -1.9791   16.0075 C   0  0  0  0  0  0  0  0  0  0  0  0
   14.5488   -1.0585   15.1914 C   0  0  0  0  0  0  0  0  0  0  0  0
   15.3421    0.0188   14.5526 C   0  0  0  0  0  0  0  0  0  0  0  0
   16.0533    0.6839   15.2091 O   0  0  0  0  0  0  0  0  0  0  0  0
   15.0719    0.0484   13.0659 N   0  0  0  0  0  0  0  0  0  0  0  0
   15.5527    1.0015   11.9978 C   0  0  0  0  0  0  0  0  0  0  0  0
   16.9393    1.6364   12.1703 C   0  0  0  0  0  0  0  0  0  0  0  0
   18.0043    0.5970   11.8787 C   0  0  0  0  0  0  0  0  0  0  0  0
   19.3872    1.0335   12.3526 C   0  0  0  0  0  0  0  0  0  0  0  0
   20.3571    0.0647   11.9765 O   0  0  0  0  0  0  0  0  0  0  0  0
   17.5471   -0.6987   12.5289 C   0  0  0  0  0  0  0  0  0  0  0  0
   16.0338   -0.8733   12.3089 C   0  0  0  0  0  0  0  0  0  0  0  0
   13.1804   -1.2029   14.9862 C   0  0  0  0  0  0  0  0  0  0  0  0
   12.3294   -0.1495   14.3842 C   0  0  0  0  0  0  0  0  0  0  0  0
   11.0350   -0.0861   14.5110 N   0  0  0  0  0  0  0  0  0  0  0  0
   10.5911   -3.2109   15.7043 H   0  0  0  0  0  0  0  0  0  0  0  0
   11.0220   -2.8195   14.0485 H   0  0  0  0  0  0  0  0  0  0  0  0
   12.6681   -4.1388   16.6670 H   0  0  0  0  0  0  0  0  0  0  0  0
   15.0660   -3.7776   17.1869 H   0  0  0  0  0  0  0  0  0  0  0  0
   16.2811   -1.8566   16.2066 H   0  0  0  0  0  0  0  0  0  0  0  0
   15.2863    0.7378   10.9597 H   0  0  0  0  0  0  0  0  0  0  0  0
   14.8708    1.8490   12.1749 H   0  0  0  0  0  0  0  0  0  0  0  0
   17.0477    2.0357   13.1854 H   0  0  0  0  0  0  0  0  0  0  0  0
   17.0484    2.4837   11.4831 H   0  0  0  0  0  0  0  0  0  0  0  0
   18.0430    0.4261   10.7939 H   0  0  0  0  0  0  0  0  0  0  0  0
   19.4188    1.1385   13.4421 H   0  0  0  0  0  0  0  0  0  0  0  0
   19.6715    1.9957   11.9136 H   0  0  0  0  0  0  0  0  0  0  0  0
   20.4637    0.1126   11.0114 H   0  0  0  0  0  0  0  0  0  0  0  0
   17.7786   -0.7021   13.6003 H   0  0  0  0  0  0  0  0  0  0  0  0
   18.0816   -1.5492   12.0890 H   0  0  0  0  0  0  0  0  0  0  0  0
   15.8203   -1.8513   12.7704 H   0  0  0  0  0  0  0  0  0  0  0  0
   15.7525   -1.0806   11.2612 H   0  0  0  0  0  0  0  0  0  0  0  0
   12.8102    0.6793   13.8438 H   0  0  0  0  0  0  0  0  0  0  0  0
  1  2  2  0
  2  3  1  0
  3  4  1  0
  4  5  2  0
  5  6  1  0
  6  7  2  0
  7  8  1  0
  8  9  1  0
  9 10  2  0
  9 11  1  0
 11 12  1  0
 12 13  1  0
 13 14  1  0
 14 15  1  0
 15 16  1  0
 14 17  1  0
 17 18  1  0
  8 19  2  0
 19 20  1  0
 20 21  2  0
 21  2  1  0
 19  4  1  0
 18 11  1  0
  3 22  1  0
  3 23  1  0
  5 24  1  0
  6 25  1  0
  7 26  1  0
 12 27  1  0
 12 28  1  0
 13 29  1  0
 13 30  1  0
 14 31  1  0
 15 32  1  0
 15 33  1  0
 16 34  1  0
 17 35  1  0
 17 36  1  0
 18 37  1  0
 18 38  1  0
 20 39  1  0
M  END
>  <Energy>  (355) 
135.19773194462036

>  <compound_id>  (355) 
1674

>  <target_id>  (355) 
1

>  <reference_id>  (355) 
111

>  <inspiration_ids>  (355) 
[111, 122]

>  <energy_score>  (355) 
56.877998089358584

>  <distance_score>  (355) 
1.3598699974361734

>  <path>  (355) 
/opt/xchem-fragalysis-2/maxwin/BulkDock/SCRATCH/505734/C1674-P111/C1674-P111.minimised.mol

>  <scratch_subdir>  (355) 
/opt/xchem-fragalysis-2/maxwin/BulkDock/SCRATCH/505734/C1674-P111

>  <fragmenstein_runtime>  (355) 
3.0596725940704346

>  <fragmenstein_outcome>  (355) 
too moved

>  <fragmenstein_mode>  (355) 
expansion

>  <fragmenstein_error>  (355) 


$$$$
C1674-P122
     RDKit          3D

 39 41  0  0  0  0  0  0  0  0999 V2000
    9.5286   -0.9120   16.0617 O   0  0  0  0  0  0  0  0  0  0  0  0
   10.4748   -1.1001   15.2955 C   0  0  0  0  0  0  0  0  0  0  0  0
   11.1348   -2.4663   15.1723 C   0  0  0  0  0  0  0  0  0  0  0  0
   12.5784   -2.3214   15.5159 C   0  0  0  0  0  0  0  0  0  0  0  0
   13.2711   -3.2585   16.2847 C   0  0  0  0  0  0  0  0  0  0  0  0
   14.6293   -3.0706   16.5201 C   0  0  0  0  0  0  0  0  0  0  0  0
   15.2980   -1.9876   15.9401 C   0  0  0  0  0  0  0  0  0  0  0  0
   14.6063   -1.0636   15.1455 C   0  0  0  0  0  0  0  0  0  0  0  0
   15.3930   -0.0062   14.4628 C   0  0  0  0  0  0  0  0  0  0  0  0
   16.1801    0.6156   15.0738 O   0  0  0  0  0  0  0  0  0  0  0  0
   15.0191    0.0574   13.0001 N   0  0  0  0  0  0  0  0  0  0  0  0
   15.4672    1.0027   11.9105 C   0  0  0  0  0  0  0  0  0  0  0  0
   16.8903    1.5705   11.9929 C   0  0  0  0  0  0  0  0  0  0  0  0
   17.8832    0.4827   11.6193 C   0  0  0  0  0  0  0  0  0  0  0  0
   19.3209    0.8298   11.9931 C   0  0  0  0  0  0  0  0  0  0  0  0
   19.7443    1.9841   11.2807 O   0  0  0  0  0  0  0  0  0  0  0  0
   17.4109   -0.7955   12.2854 C   0  0  0  0  0  0  0  0  0  0  0  0
   15.8794   -0.8967   12.1659 C   0  0  0  0  0  0  0  0  0  0  0  0
   13.2290   -1.1963   14.9960 C   0  0  0  0  0  0  0  0  0  0  0  0
   12.3603   -0.1432   14.4202 C   0  0  0  0  0  0  0  0  0  0  0  0
   11.0691   -0.0828   14.5753 N   0  0  0  0  0  0  0  0  0  0  0  0
   10.6768   -3.1873   15.8375 H   0  0  0  0  0  0  0  0  0  0  0  0
   11.0411   -2.8529   14.1557 H   0  0  0  0  0  0  0  0  0  0  0  0
   12.7631   -4.1270   16.7006 H   0  0  0  0  0  0  0  0  0  0  0  0
   15.1822   -3.7839   17.1275 H   0  0  0  0  0  0  0  0  0  0  0  0
   16.3702   -1.8748   16.0951 H   0  0  0  0  0  0  0  0  0  0  0  0
   15.1169    0.7664   10.8909 H   0  0  0  0  0  0  0  0  0  0  0  0
   14.8395    1.8778   12.1446 H   0  0  0  0  0  0  0  0  0  0  0  0
   17.0878    1.9521   13.0012 H   0  0  0  0  0  0  0  0  0  0  0  0
   16.9869    2.4204   11.3068 H   0  0  0  0  0  0  0  0  0  0  0  0
   17.8309    0.3522   10.5292 H   0  0  0  0  0  0  0  0  0  0  0  0
   19.9916    0.0084   11.7209 H   0  0  0  0  0  0  0  0  0  0  0  0
   19.4348    1.0141   13.0670 H   0  0  0  0  0  0  0  0  0  0  0  0
   19.3964    2.7609   11.7523 H   0  0  0  0  0  0  0  0  0  0  0  0
   17.7145   -0.8236   13.3382 H   0  0  0  0  0  0  0  0  0  0  0  0
   17.8763   -1.6622   11.8012 H   0  0  0  0  0  0  0  0  0  0  0  0
   15.6515   -1.8708   12.6286 H   0  0  0  0  0  0  0  0  0  0  0  0
   15.5180   -1.0743   11.1375 H   0  0  0  0  0  0  0  0  0  0  0  0
   12.8250    0.6921   13.8762 H   0  0  0  0  0  0  0  0  0  0  0  0
  1  2  2  0
  2  3  1  0
  3  4  1  0
  4  5  2  0
  5  6  1  0
  6  7  2  0
  7  8  1  0
  8  9  1  0
  9 10  2  0
  9 11  1  0
 11 12  1  0
 12 13  1  0
 13 14  1  0
 14 15  1  0
 15 16  1  0
 14 17  1  0
 17 18  1  0
  8 19  2  0
 19 20  1  0
 20 21  2  0
 21  2  1  0
 19  4  1  0
 18 11  1  0
  3 22  1  0
  3 23  1  0
  5 24  1  0
  6 25  1  0
  7 26  1  0
 12 27  1  0
 12 28  1  0
 13 29  1  0
 13 30  1  0
 14 31  1  0
 15 32  1  0
 15 33  1  0
 16 34  1  0
 17 35  1  0
 17 36  1  0
 18 37  1  0
 18 38  1  0
 20 39  1  0
M  END
>  <Energy>  (356) 
134.58738144769694

>  <compound_id>  (356) 
1674

>  <target_id>  (356) 
1

>  <reference_id>  (356) 
122

>  <inspiration_ids>  (356) 
[111, 122]

>  <energy_score>  (356) 
56.2676475924373

>  <distance_score>  (356) 
1.4059132203897942

>  <path>  (356) 
/opt/xchem-fragalysis-2/maxwin/BulkDock/SCRATCH/505734/C1674-P122/C1674-P122.minimised.mol

>  <scratch_subdir>  (356) 
/opt/xchem-fragalysis-2/maxwin/BulkDock/SCRATCH/505734/C1674-P122

>  <fragmenstein_runtime>  (356) 
3.1651670932769775

>  <fragmenstein_outcome>  (356) 
too moved

>  <fragmenstein_mode>  (356) 
expansion

>  <fragmenstein_error>  (356) 


$$$$
C3353-P112
     RDKit          3D

 55 57  0  0  0  0  0  0  0  0999 V2000
  -14.0441  -27.0572   16.4857 C   0  0  0  0  0  0  0  0  0  0  0  0
  -13.0982  -26.7430   14.6817 C   0  0  0  0  0  0  0  0  0  0  0  0
  -12.1900  -27.6656   14.0002 O   0  0  0  0  0  0  0  0  0  0  0  0
  -12.9922  -25.7628   13.3412 C   0  0  0  0  0  0  0  0  0  0  0  0
  -13.8032  -25.8830   12.1895 C   0  0  0  0  0  0  0  0  0  0  0  0
  -13.4449  -25.3262   10.9596 C   0  0  0  0  0  0  0  0  0  0  0  0
  -12.1850  -24.7775   10.8019 C   0  0  0  0  0  0  0  0  0  0  0  0
  -11.3366  -24.7131   11.8986 C   0  0  0  0  0  0  0  0  0  0  0  0
   -9.9897  -24.4866   11.7428 O   0  0  0  0  0  0  0  0  0  0  0  0
   -9.2889  -25.7515   11.5625 C   0  0  0  0  0  0  0  0  0  0  0  0
   -9.2597  -26.5652   12.7804 N   0  0  0  0  0  0  0  0  0  0  0  0
   -8.3612  -27.6496   12.8488 C   0  0  0  0  0  0  0  0  0  0  0  0
   -7.9738  -28.3872   11.7280 C   0  0  0  0  0  0  0  0  0  0  0  0
   -7.0867  -29.4623   11.8469 C   0  0  0  0  0  0  0  0  0  0  0  0
   -6.5965  -29.8394   13.0952 C   0  0  0  0  0  0  0  0  0  0  0  0
   -7.0097  -29.1597   14.2360 C   0  0  0  0  0  0  0  0  0  0  0  0
   -7.8962  -28.0926   14.1070 C   0  0  0  0  0  0  0  0  0  0  0  0
   -8.3098  -27.4192   15.2286 O   0  0  0  0  0  0  0  0  0  0  0  0
  -11.7872  -25.0410   13.1705 C   0  0  0  0  0  0  0  0  0  0  0  0
  -12.4745  -25.9967   15.6639 N   0  0  0  0  0  0  0  0  0  0  0  0
  -12.0365  -27.6187   16.1878 C   0  0  0  0  0  0  0  0  0  0  0  0
  -13.1766  -28.9488   15.5056 C   0  0  0  0  0  0  0  0  0  0  0  0
  -14.7515  -28.3713   14.7108 C   0  0  0  0  0  0  0  0  0  0  0  0
  -14.9034  -29.0483   13.3364 C   0  0  0  0  0  0  0  0  0  0  0  0
  -13.8891  -28.7511   12.3965 O   0  0  0  0  0  0  0  0  0  0  0  0
  -15.3102  -26.5891   14.6838 C   0  0  0  0  0  0  0  0  0  0  0  0
  -14.1241  -25.2991   15.4155 C   0  0  0  0  0  0  0  0  0  0  0  0
  -13.6208  -26.4262   17.3216 H   0  0  0  0  0  0  0  0  0  0  0  0
  -14.0481  -28.0220   17.0160 H   0  0  0  0  0  0  0  0  0  0  0  0
  -15.1063  -26.8048   16.6569 H   0  0  0  0  0  0  0  0  0  0  0  0
  -11.3352  -27.2117   13.8427 H   0  0  0  0  0  0  0  0  0  0  0  0
  -14.6806  -26.5147   12.1447 H   0  0  0  0  0  0  0  0  0  0  0  0
  -14.0939  -25.4561   10.0970 H   0  0  0  0  0  0  0  0  0  0  0  0
  -11.8631  -24.4999    9.8061 H   0  0  0  0  0  0  0  0  0  0  0  0
   -9.7368  -26.3003   10.7243 H   0  0  0  0  0  0  0  0  0  0  0  0
   -8.2669  -25.4780   11.2757 H   0  0  0  0  0  0  0  0  0  0  0  0
   -9.1283  -25.9915   13.6125 H   0  0  0  0  0  0  0  0  0  0  0  0
   -8.3478  -28.1430   10.7383 H   0  0  0  0  0  0  0  0  0  0  0  0
   -6.7839  -30.0106   10.9578 H   0  0  0  0  0  0  0  0  0  0  0  0
   -5.9081  -30.6767   13.1775 H   0  0  0  0  0  0  0  0  0  0  0  0
   -6.6490  -29.4770   15.2094 H   0  0  0  0  0  0  0  0  0  0  0  0
   -7.7501  -27.6728   15.9843 H   0  0  0  0  0  0  0  0  0  0  0  0
  -11.0810  -24.9531   13.9924 H   0  0  0  0  0  0  0  0  0  0  0  0
  -11.9929  -27.6541   17.2873 H   0  0  0  0  0  0  0  0  0  0  0  0
  -11.0055  -27.8118   15.8540 H   0  0  0  0  0  0  0  0  0  0  0  0
  -12.6230  -29.5878   14.8014 H   0  0  0  0  0  0  0  0  0  0  0  0
  -13.4336  -29.6383   16.3256 H   0  0  0  0  0  0  0  0  0  0  0  0
  -15.5247  -28.8337   15.3471 H   0  0  0  0  0  0  0  0  0  0  0  0
  -14.9051  -30.1349   13.4737 H   0  0  0  0  0  0  0  0  0  0  0  0
  -15.8665  -28.7781   12.8921 H   0  0  0  0  0  0  0  0  0  0  0  0
  -13.0492  -28.5781   12.8728 H   0  0  0  0  0  0  0  0  0  0  0  0
  -16.2514  -26.5363   15.2578 H   0  0  0  0  0  0  0  0  0  0  0  0
  -15.6516  -26.2888   13.6986 H   0  0  0  0  0  0  0  0  0  0  0  0
  -14.4921  -24.8821   16.3706 H   0  0  0  0  0  0  0  0  0  0  0  0
  -14.0708  -24.4131   14.7633 H   0  0  0  0  0  0  0  0  0  0  0  0
  1  2  1  0
  2  3  1  0
  2  4  1  0
  4  5  2  0
  5  6  1  0
  6  7  2  0
  7  8  1  0
  8  9  1  0
  9 10  1  0
 10 11  1  0
 11 12  1  0
 12 13  2  0
 13 14  1  0
 14 15  2  0
 15 16  1  0
 16 17  2  0
 17 18  1  0
  8 19  2  0
  2 20  1  0
 20 21  1  0
 21 22  1  0
 22 23  1  0
 23 24  1  0
 24 25  1  0
 23 26  1  0
 26 27  1  0
 19  4  1  0
 27 20  1  0
 17 12  1  0
  1 28  1  0
  1 29  1  0
  1 30  1  0
  3 31  1  0
  5 32  1  0
  6 33  1  0
  7 34  1  0
 10 35  1  0
 10 36  1  0
 11 37  1  0
 13 38  1  0
 14 39  1  0
 15 40  1  0
 16 41  1  0
 18 42  1  0
 19 43  1  0
 21 44  1  0
 21 45  1  0
 22 46  1  0
 22 47  1  0
 23 48  1  0
 24 49  1  0
 24 50  1  0
 25 51  1  0
 26 52  1  0
 26 53  1  0
 27 54  1  0
 27 55  1  0
M  END
>  <Energy>  (357) 
623.76121863694846

>  <compound_id>  (357) 
3353

>  <target_id>  (357) 
1

>  <reference_id>  (357) 
112

>  <inspiration_ids>  (357) 
[112, 1]

>  <energy_score>  (357) 
318.25535750384313

>  <distance_score>  (357) 
4.399298621911981

>  <path>  (357) 
/opt/xchem-fragalysis-2/maxwin/BulkDock/SCRATCH/505734/C3353-P112/C3353-P112.minimised.mol

>  <scratch_subdir>  (357) 
/opt/xchem-fragalysis-2/maxwin/BulkDock/SCRATCH/505734/C3353-P112

>  <fragmenstein_runtime>  (357) 
14.659769058227539

>  <fragmenstein_outcome>  (357) 
too moved

>  <fragmenstein_mode>  (357) 
expansion

>  <fragmenstein_error>  (357) 


$$$$
C3353-P1
     RDKit          3D

 55 57  0  0  0  0  0  0  0  0999 V2000
  -15.6644  -24.4319   12.1537 C   0  0  0  0  0  0  0  0  0  0  0  0
  -14.5175  -24.6563   13.1714 C   0  0  0  0  0  0  0  0  0  0  0  0
  -14.8153  -23.7597   14.2321 O   0  0  0  0  0  0  0  0  0  0  0  0
  -14.4990  -26.0549   13.7427 C   0  0  0  0  0  0  0  0  0  0  0  0
  -15.0892  -27.1144   13.0428 C   0  0  0  0  0  0  0  0  0  0  0  0
  -14.6072  -28.3912   13.2252 C   0  0  0  0  0  0  0  0  0  0  0  0
  -13.4913  -28.5842   14.0379 C   0  0  0  0  0  0  0  0  0  0  0  0
  -12.9327  -27.5319   14.7599 C   0  0  0  0  0  0  0  0  0  0  0  0
  -11.6926  -27.6085   15.3794 O   0  0  0  0  0  0  0  0  0  0  0  0
  -10.6583  -27.9932   14.4354 C   0  0  0  0  0  0  0  0  0  0  0  0
   -9.2953  -27.6496   14.9097 N   0  0  0  0  0  0  0  0  0  0  0  0
   -8.1672  -28.0915   14.1750 C   0  0  0  0  0  0  0  0  0  0  0  0
   -8.3090  -28.4379   12.8220 C   0  0  0  0  0  0  0  0  0  0  0  0
   -7.2163  -28.7189   11.9956 C   0  0  0  0  0  0  0  0  0  0  0  0
   -5.9264  -28.6708   12.4965 C   0  0  0  0  0  0  0  0  0  0  0  0
   -5.7325  -28.3524   13.8297 C   0  0  0  0  0  0  0  0  0  0  0  0
   -6.8301  -28.0537   14.6479 C   0  0  0  0  0  0  0  0  0  0  0  0
   -6.4606  -27.6457   15.9014 O   0  0  0  0  0  0  0  0  0  0  0  0
  -13.5836  -26.3212   14.7715 C   0  0  0  0  0  0  0  0  0  0  0  0
  -13.2201  -24.3152   12.5614 N   0  0  0  0  0  0  0  0  0  0  0  0
  -12.7443  -25.3129   11.5973 C   0  0  0  0  0  0  0  0  0  0  0  0
  -11.6010  -24.7163   10.8064 C   0  0  0  0  0  0  0  0  0  0  0  0
  -10.5088  -24.0595   11.6508 C   0  0  0  0  0  0  0  0  0  0  0  0
   -9.4603  -25.0863   12.0308 C   0  0  0  0  0  0  0  0  0  0  0  0
   -8.2141  -24.4180   12.0688 O   0  0  0  0  0  0  0  0  0  0  0  0
  -11.0016  -23.3301   12.8875 C   0  0  0  0  0  0  0  0  0  0  0  0
  -12.1248  -24.1071   13.5070 C   0  0  0  0  0  0  0  0  0  0  0  0
  -16.6352  -24.6562   12.6150 H   0  0  0  0  0  0  0  0  0  0  0  0
  -15.7324  -23.3891   11.8374 H   0  0  0  0  0  0  0  0  0  0  0  0
  -15.5768  -25.0353   11.2454 H   0  0  0  0  0  0  0  0  0  0  0  0
  -14.7695  -22.8897   13.8041 H   0  0  0  0  0  0  0  0  0  0  0  0
  -15.8558  -26.9623   12.2896 H   0  0  0  0  0  0  0  0  0  0  0  0
  -15.0329  -29.2260   12.6744 H   0  0  0  0  0  0  0  0  0  0  0  0
  -13.0510  -29.5770   14.0900 H   0  0  0  0  0  0  0  0  0  0  0  0
  -10.7219  -29.0790   14.2951 H   0  0  0  0  0  0  0  0  0  0  0  0
  -10.8405  -27.4829   13.4834 H   0  0  0  0  0  0  0  0  0  0  0  0
   -9.2101  -27.6747   15.9172 H   0  0  0  0  0  0  0  0  0  0  0  0
   -9.2796  -28.4641   12.3373 H   0  0  0  0  0  0  0  0  0  0  0  0
   -7.3770  -28.9611   10.9475 H   0  0  0  0  0  0  0  0  0  0  0  0
   -5.0751  -28.8784   11.8542 H   0  0  0  0  0  0  0  0  0  0  0  0
   -4.7248  -28.2972   14.2341 H   0  0  0  0  0  0  0  0  0  0  0  0
   -7.1763  -27.0857   16.2518 H   0  0  0  0  0  0  0  0  0  0  0  0
  -13.1906  -25.5229   15.3827 H   0  0  0  0  0  0  0  0  0  0  0  0
  -13.5240  -25.5872   10.8792 H   0  0  0  0  0  0  0  0  0  0  0  0
  -12.4025  -26.2418   12.0666 H   0  0  0  0  0  0  0  0  0  0  0  0
  -11.1866  -25.4893   10.1471 H   0  0  0  0  0  0  0  0  0  0  0  0
  -12.0116  -23.9678   10.1208 H   0  0  0  0  0  0  0  0  0  0  0  0
  -10.0406  -23.2718   11.0580 H   0  0  0  0  0  0  0  0  0  0  0  0
   -9.3638  -25.8862   11.2917 H   0  0  0  0  0  0  0  0  0  0  0  0
   -9.6392  -25.5391   13.0065 H   0  0  0  0  0  0  0  0  0  0  0  0
   -8.3328  -23.5942   12.5792 H   0  0  0  0  0  0  0  0  0  0  0  0
  -11.3351  -22.3243   12.6409 H   0  0  0  0  0  0  0  0  0  0  0  0
  -10.1978  -23.1879   13.6206 H   0  0  0  0  0  0  0  0  0  0  0  0
  -12.4712  -23.5501   14.3460 H   0  0  0  0  0  0  0  0  0  0  0  0
  -11.6978  -25.0345   13.8959 H   0  0  0  0  0  0  0  0  0  0  0  0
  1  2  1  0
  2  3  1  0
  2  4  1  0
  4  5  2  0
  5  6  1  0
  6  7  2  0
  7  8  1  0
  8  9  1  0
  9 10  1  0
 10 11  1  0
 11 12  1  0
 12 13  2  0
 13 14  1  0
 14 15  2  0
 15 16  1  0
 16 17  2  0
 17 18  1  0
  8 19  2  0
  2 20  1  0
 20 21  1  0
 21 22  1  0
 22 23  1  0
 23 24  1  0
 24 25  1  0
 23 26  1  0
 26 27  1  0
 19  4  1  0
 27 20  1  0
 17 12  1  0
  1 28  1  0
  1 29  1  0
  1 30  1  0
  3 31  1  0
  5 32  1  0
  6 33  1  0
  7 34  1  0
 10 35  1  0
 10 36  1  0
 11 37  1  0
 13 38  1  0
 14 39  1  0
 15 40  1  0
 16 41  1  0
 18 42  1  0
 19 43  1  0
 21 44  1  0
 21 45  1  0
 22 46  1  0
 22 47  1  0
 23 48  1  0
 24 49  1  0
 24 50  1  0
 25 51  1  0
 26 52  1  0
 26 53  1  0
 27 54  1  0
 27 55  1  0
M  END
>  <Energy>  (358) 
31.547892131962257

>  <compound_id>  (358) 
3353

>  <target_id>  (358) 
1

>  <reference_id>  (358) 
1

>  <inspiration_ids>  (358) 
[112, 1]

>  <energy_score>  (358) 
-129.68252942808363

>  <distance_score>  (358) 
3.2539778030658204

>  <path>  (358) 
/opt/xchem-fragalysis-2/maxwin/BulkDock/SCRATCH/505734/C3353-P1/C3353-P1.minimised.mol

>  <scratch_subdir>  (358) 
/opt/xchem-fragalysis-2/maxwin/BulkDock/SCRATCH/505734/C3353-P1

>  <fragmenstein_runtime>  (358) 
12.072726488113403

>  <fragmenstein_outcome>  (358) 
too moved

>  <fragmenstein_mode>  (358) 
expansion

>  <fragmenstein_error>  (358) 


$$$$
C1922-P112
     RDKit          3D

 59 61  0  0  0  0  0  0  0  0999 V2000
   -8.3442  -23.1323    5.5107 C   0  0  0  0  0  0  0  0  0  0  0  0
   -9.6626  -22.5259    5.1179 C   0  0  0  0  0  0  0  0  0  0  0  0
   -9.9013  -22.4104    3.9183 O   0  0  0  0  0  0  0  0  0  0  0  0
  -10.5716  -22.2282    6.1118 N   0  0  0  0  0  0  0  0  0  0  0  0
  -10.9323  -21.0834    6.8768 C   0  0  0  0  0  0  0  0  0  0  0  0
  -10.9978  -21.0835    8.7114 C   0  0  0  0  0  0  0  0  0  0  0  0
   -9.8381  -20.3637    9.2288 N   0  0  0  0  0  0  0  0  0  0  0  0
   -8.9258  -20.4339   10.5091 C   0  0  0  0  0  0  0  0  0  0  0  0
   -8.9292  -21.1366   11.7399 C   0  0  0  0  0  0  0  0  0  0  0  0
   -9.7643  -22.2612   12.5574 C   0  0  0  0  0  0  0  0  0  0  0  0
  -10.6177  -23.5151   12.0864 C   0  0  0  0  0  0  0  0  0  0  0  0
  -12.0130  -23.4861   12.3389 C   0  0  0  0  0  0  0  0  0  0  0  0
  -12.9374  -24.4951   12.0311 C   0  0  0  0  0  0  0  0  0  0  0  0
  -12.4888  -25.6646   11.4794 C   0  0  0  0  0  0  0  0  0  0  0  0
  -11.1202  -25.8189   11.3145 C   0  0  0  0  0  0  0  0  0  0  0  0
  -10.1751  -24.7947   11.6392 C   0  0  0  0  0  0  0  0  0  0  0  0
   -8.7340  -25.2146   11.6531 C   0  0  0  0  0  0  0  0  0  0  0  0
   -7.9730  -24.3728   12.0343 O   0  0  0  0  0  0  0  0  0  0  0  0
   -8.5072  -26.5772   11.3021 N   0  0  0  0  0  0  0  0  0  0  0  0
   -7.2742  -27.4214   11.4035 C   0  0  0  0  0  0  0  0  0  0  0  0
   -5.9526  -26.6793   11.3823 C   0  0  0  0  0  0  0  0  0  0  0  0
   -5.7710  -25.8706   10.1091 C   0  0  0  0  0  0  0  0  0  0  0  0
   -5.2737  -24.4546   10.4254 C   0  0  0  0  0  0  0  0  0  0  0  0
   -4.1454  -24.5112   11.2887 O   0  0  0  0  0  0  0  0  0  0  0  0
   -7.0378  -25.8416    9.2591 C   0  0  0  0  0  0  0  0  0  0  0  0
   -8.1964  -26.6915    9.8137 C   0  0  0  0  0  0  0  0  0  0  0  0
   -9.6983  -19.5744    8.0502 C   0  0  0  0  0  0  0  0  0  0  0  0
  -10.3095  -20.4306    6.5748 C   0  0  0  0  0  0  0  0  0  0  0  0
   -8.3900  -23.6078    6.4897 H   0  0  0  0  0  0  0  0  0  0  0  0
   -8.1164  -23.9351    4.7999 H   0  0  0  0  0  0  0  0  0  0  0  0
   -7.5452  -22.3999    5.4464 H   0  0  0  0  0  0  0  0  0  0  0  0
  -11.7486  -21.8521    7.1819 H   0  0  0  0  0  0  0  0  0  0  0  0
  -12.0236  -20.7398    6.3815 H   0  0  0  0  0  0  0  0  0  0  0  0
  -11.7956  -20.4017    8.9285 H   0  0  0  0  0  0  0  0  0  0  0  0
  -11.3258  -22.0419    9.0913 H   0  0  0  0  0  0  0  0  0  0  0  0
   -8.0121  -19.8975   10.3377 H   0  0  0  0  0  0  0  0  0  0  0  0
   -7.9678  -21.0040   12.2517 H   0  0  0  0  0  0  0  0  0  0  0  0
   -9.0545  -22.6712   13.2847 H   0  0  0  0  0  0  0  0  0  0  0  0
  -10.4092  -21.6613   13.1986 H   0  0  0  0  0  0  0  0  0  0  0  0
  -12.4642  -22.6121   12.7709 H   0  0  0  0  0  0  0  0  0  0  0  0
  -13.9951  -24.3439   12.2293 H   0  0  0  0  0  0  0  0  0  0  0  0
  -13.1735  -26.4688   11.2297 H   0  0  0  0  0  0  0  0  0  0  0  0
  -10.7901  -26.7953   10.9666 H   0  0  0  0  0  0  0  0  0  0  0  0
   -7.3536  -27.7769   12.4438 H   0  0  0  0  0  0  0  0  0  0  0  0
   -7.2702  -28.3873   10.8706 H   0  0  0  0  0  0  0  0  0  0  0  0
   -5.8854  -26.0377   12.2648 H   0  0  0  0  0  0  0  0  0  0  0  0
   -5.1319  -27.4003   11.4858 H   0  0  0  0  0  0  0  0  0  0  0  0
   -4.9815  -26.3662    9.5272 H   0  0  0  0  0  0  0  0  0  0  0  0
   -6.0286  -23.8534   10.9224 H   0  0  0  0  0  0  0  0  0  0  0  0
   -4.9810  -23.9382    9.5059 H   0  0  0  0  0  0  0  0  0  0  0  0
   -4.2376  -23.7668   11.9236 H   0  0  0  0  0  0  0  0  0  0  0  0
   -7.3824  -24.8135    9.1297 H   0  0  0  0  0  0  0  0  0  0  0  0
   -6.8078  -26.1884    8.2435 H   0  0  0  0  0  0  0  0  0  0  0  0
   -9.0884  -26.2658    9.3267 H   0  0  0  0  0  0  0  0  0  0  0  0
   -8.2250  -27.7189    9.4118 H   0  0  0  0  0  0  0  0  0  0  0  0
   -8.7722  -19.0665    7.9462 H   0  0  0  0  0  0  0  0  0  0  0  0
  -10.4202  -18.8013    8.2431 H   0  0  0  0  0  0  0  0  0  0  0  0
  -10.6459  -19.6764    5.7072 H   0  0  0  0  0  0  0  0  0  0  0  0
   -9.2816  -20.3498    6.0456 H   0  0  0  0  0  0  0  0  0  0  0  0
  1  2  1  0
  2  3  2  0
  2  4  1  0
  4  5  1  0
  5  6  1  0
  6  7  1  0
  7  8  1  0
  8  9  2  3
  9 10  1  0
 10 11  1  0
 11 12  2  0
 12 13  1  0
 13 14  2  0
 14 15  1  0
 15 16  2  0
 16 17  1  0
 17 18  2  0
 17 19  1  0
 19 20  1  0
 20 21  1  0
 21 22  1  0
 22 23  1  0
 23 24  1  0
 22 25  1  0
 25 26  1  0
  7 27  1  0
 27 28  1  0
 28  4  1  0
 16 11  1  0
 26 19  1  0
  1 29  1  0
  1 30  1  0
  1 31  1  0
  5 32  1  0
  5 33  1  0
  6 34  1  0
  6 35  1  0
  8 36  1  0
  9 37  1  0
 10 38  1  0
 10 39  1  0
 12 40  1  0
 13 41  1  0
 14 42  1  0
 15 43  1  0
 20 44  1  0
 20 45  1  0
 21 46  1  0
 21 47  1  0
 22 48  1  0
 23 49  1  0
 23 50  1  0
 24 51  1  0
 25 52  1  0
 25 53  1  0
 26 54  1  0
 26 55  1  0
 27 56  1  0
 27 57  1  0
 28 58  1  0
 28 59  1  0
M  END
>  <Energy>  (359) 
826.51354522499389

>  <compound_id>  (359) 
1922

>  <target_id>  (359) 
1

>  <reference_id>  (359) 
112

>  <inspiration_ids>  (359) 
[112, 2]

>  <energy_score>  (359) 
691.5251890639979

>  <distance_score>  (359) 
4.204698119296645

>  <path>  (359) 
/opt/xchem-fragalysis-2/maxwin/BulkDock/SCRATCH/505734/C1922-P112/C1922-P112.minimised.mol

>  <scratch_subdir>  (359) 
/opt/xchem-fragalysis-2/maxwin/BulkDock/SCRATCH/505734/C1922-P112

>  <fragmenstein_runtime>  (359) 
14.012962579727173

>  <fragmenstein_outcome>  (359) 
too moved

>  <fragmenstein_mode>  (359) 
expansion

>  <fragmenstein_error>  (359) 


$$$$
C1922-P2
     RDKit          3D

 59 61  0  0  0  0  0  0  0  0999 V2000
   -8.9981  -21.4874    2.4911 C   0  0  0  0  0  0  0  0  0  0  0  0
   -9.2759  -22.2892    3.7360 C   0  0  0  0  0  0  0  0  0  0  0  0
   -9.5740  -23.4740    3.6859 O   0  0  0  0  0  0  0  0  0  0  0  0
   -9.0660  -21.5739    4.8903 N   0  0  0  0  0  0  0  0  0  0  0  0
   -9.8912  -20.7666    5.8300 C   0  0  0  0  0  0  0  0  0  0  0  0
  -10.1207  -21.5212    7.4440 C   0  0  0  0  0  0  0  0  0  0  0  0
  -11.4835  -22.0359    7.3869 N   0  0  0  0  0  0  0  0  0  0  0  0
  -11.9030  -23.0558    8.2169 C   0  0  0  0  0  0  0  0  0  0  0  0
  -13.0420  -23.7614    8.1795 C   0  0  0  0  0  0  0  0  0  0  0  0
  -13.3027  -24.9674    9.0559 C   0  0  0  0  0  0  0  0  0  0  0  0
  -14.2407  -24.8090   10.2470 C   0  0  0  0  0  0  0  0  0  0  0  0
  -15.3340  -23.9166   10.0491 C   0  0  0  0  0  0  0  0  0  0  0  0
  -16.4617  -23.9022   10.8681 C   0  0  0  0  0  0  0  0  0  0  0  0
  -16.5771  -24.8403   11.8694 C   0  0  0  0  0  0  0  0  0  0  0  0
  -15.5182  -25.7158   12.0930 C   0  0  0  0  0  0  0  0  0  0  0  0
  -14.2450  -25.6237   11.4169 C   0  0  0  0  0  0  0  0  0  0  0  0
  -13.3227  -26.9021   11.8160 C   0  0  0  0  0  0  0  0  0  0  0  0
  -11.9179  -27.1022   13.0855 O   0  0  0  0  0  0  0  0  0  0  0  0
  -12.9618  -27.4130   11.9037 N   0  0  0  0  0  0  0  0  0  0  0  0
  -12.9910  -25.8233   13.1318 C   0  0  0  0  0  0  0  0  0  0  0  0
  -11.6939  -24.8757   12.9886 C   0  0  0  0  0  0  0  0  0  0  0  0
  -10.9802  -24.9014   11.6279 C   0  0  0  0  0  0  0  0  0  0  0  0
   -9.6652  -24.1158   11.7462 C   0  0  0  0  0  0  0  0  0  0  0  0
   -9.1599  -23.7932   10.4563 O   0  0  0  0  0  0  0  0  0  0  0  0
  -10.6903  -26.3144   11.0398 C   0  0  0  0  0  0  0  0  0  0  0  0
  -11.8797  -27.3208   10.8281 C   0  0  0  0  0  0  0  0  0  0  0  0
  -11.8549  -21.9371    5.9889 C   0  0  0  0  0  0  0  0  0  0  0  0
  -10.6779  -20.8472    5.3597 C   0  0  0  0  0  0  0  0  0  0  0  0
   -8.8378  -20.4301    2.7220 H   0  0  0  0  0  0  0  0  0  0  0  0
   -9.8535  -21.5690    1.8151 H   0  0  0  0  0  0  0  0  0  0  0  0
   -8.1013  -21.8807    2.0051 H   0  0  0  0  0  0  0  0  0  0  0  0
   -9.5957  -19.5572    5.9244 H   0  0  0  0  0  0  0  0  0  0  0  0
   -8.8391  -20.6440    6.3127 H   0  0  0  0  0  0  0  0  0  0  0  0
   -9.3692  -22.3110    7.5695 H   0  0  0  0  0  0  0  0  0  0  0  0
  -10.0284  -20.7369    8.2036 H   0  0  0  0  0  0  0  0  0  0  0  0
  -11.1542  -23.2919    8.9724 H   0  0  0  0  0  0  0  0  0  0  0  0
  -13.7831  -23.5405    7.4171 H   0  0  0  0  0  0  0  0  0  0  0  0
  -12.3308  -25.3253    9.3609 H   0  0  0  0  0  0  0  0  0  0  0  0
  -13.7229  -25.7552    8.4165 H   0  0  0  0  0  0  0  0  0  0  0  0
  -15.3487  -23.2431    9.1925 H   0  0  0  0  0  0  0  0  0  0  0  0
  -17.2742  -23.2087   10.6659 H   0  0  0  0  0  0  0  0  0  0  0  0
  -17.4846  -24.9098   12.4625 H   0  0  0  0  0  0  0  0  0  0  0  0
  -15.6573  -26.4856   12.8570 H   0  0  0  0  0  0  0  0  0  0  0  0
  -13.1120  -26.2337   14.1850 H   0  0  0  0  0  0  0  0  0  0  0  0
  -13.8338  -25.1232   13.2758 H   0  0  0  0  0  0  0  0  0  0  0  0
  -12.0125  -23.8488   13.2065 H   0  0  0  0  0  0  0  0  0  0  0  0
  -10.9829  -25.1285   13.7892 H   0  0  0  0  0  0  0  0  0  0  0  0
  -11.6020  -24.3415   10.9359 H   0  0  0  0  0  0  0  0  0  0  0  0
   -9.8107  -23.1782   12.2929 H   0  0  0  0  0  0  0  0  0  0  0  0
   -8.9154  -24.7198   12.2580 H   0  0  0  0  0  0  0  0  0  0  0  0
   -8.3165  -23.3207   10.6008 H   0  0  0  0  0  0  0  0  0  0  0  0
  -10.1830  -26.2092   10.0719 H   0  0  0  0  0  0  0  0  0  0  0  0
   -9.9530  -26.8067   11.6904 H   0  0  0  0  0  0  0  0  0  0  0  0
  -12.3245  -27.2340    9.8256 H   0  0  0  0  0  0  0  0  0  0  0  0
  -11.4309  -28.3290   10.8053 H   0  0  0  0  0  0  0  0  0  0  0  0
  -12.8469  -21.4909    5.8648 H   0  0  0  0  0  0  0  0  0  0  0  0
  -11.7783  -22.8954    5.4617 H   0  0  0  0  0  0  0  0  0  0  0  0
  -11.1241  -19.7704    4.9789 H   0  0  0  0  0  0  0  0  0  0  0  0
  -11.1106  -21.1255    4.3074 H   0  0  0  0  0  0  0  0  0  0  0  0
  1  2  1  0
  2  3  2  0
  2  4  1  0
  4  5  1  0
  5  6  1  0
  6  7  1  0
  7  8  1  0
  8  9  2  3
  9 10  1  0
 10 11  1  0
 11 12  2  0
 12 13  1  0
 13 14  2  0
 14 15  1  0
 15 16  2  0
 16 17  1  0
 17 18  2  0
 17 19  1  0
 19 20  1  0
 20 21  1  0
 21 22  1  0
 22 23  1  0
 23 24  1  0
 22 25  1  0
 25 26  1  0
  7 27  1  0
 27 28  1  0
 28  4  1  0
 16 11  1  0
 26 19  1  0
  1 29  1  0
  1 30  1  0
  1 31  1  0
  5 32  1  0
  5 33  1  0
  6 34  1  0
  6 35  1  0
  8 36  1  0
  9 37  1  0
 10 38  1  0
 10 39  1  0
 12 40  1  0
 13 41  1  0
 14 42  1  0
 15 43  1  0
 20 44  1  0
 20 45  1  0
 21 46  1  0
 21 47  1  0
 22 48  1  0
 23 49  1  0
 23 50  1  0
 24 51  1  0
 25 52  1  0
 25 53  1  0
 26 54  1  0
 26 55  1  0
 27 56  1  0
 27 57  1  0
 28 58  1  0
 28 59  1  0
M  END
>  <Energy>  (360) 
2409.1734391661221

>  <compound_id>  (360) 
1922

>  <target_id>  (360) 
1

>  <reference_id>  (360) 
2

>  <inspiration_ids>  (360) 
[112, 2]

>  <energy_score>  (360) 
2274.1850830051285

>  <distance_score>  (360) 
3.2783496456812293

>  <path>  (360) 
/opt/xchem-fragalysis-2/maxwin/BulkDock/SCRATCH/505734/C1922-P2/C1922-P2.minimised.mol

>  <scratch_subdir>  (360) 
/opt/xchem-fragalysis-2/maxwin/BulkDock/SCRATCH/505734/C1922-P2

>  <fragmenstein_runtime>  (360) 
15.818483352661133

>  <fragmenstein_outcome>  (360) 
too moved

>  <fragmenstein_mode>  (360) 
expansion

>  <fragmenstein_error>  (360) 


$$$$
C1961-P112
     RDKit          3D

 49 51  0  0  0  0  0  0  0  0999 V2000
  -14.4751  -30.2288   15.4980 C   0  0  0  0  0  0  0  0  0  0  0  0
  -15.6038  -29.4652   16.1876 C   0  0  0  0  0  0  0  0  0  0  0  0
  -16.8591  -29.7095   15.4537 N   0  0  0  0  0  0  0  0  0  0  0  0
  -15.2752  -28.0079   16.2621 C   0  0  0  0  0  0  0  0  0  0  0  0
  -15.6965  -27.0134   15.5118 N   0  0  0  0  0  0  0  0  0  0  0  0
  -14.9982  -25.9480   16.0278 C   0  0  0  0  0  0  0  0  0  0  0  0
  -15.1025  -24.5497   15.5395 C   0  0  0  0  0  0  0  0  0  0  0  0
  -15.3905  -24.5313   14.0602 C   0  0  0  0  0  0  0  0  0  0  0  0
  -16.7098  -24.3069   13.6336 C   0  0  0  0  0  0  0  0  0  0  0  0
  -17.0348  -24.2611   12.2764 C   0  0  0  0  0  0  0  0  0  0  0  0
  -16.0475  -24.4267   11.3113 C   0  0  0  0  0  0  0  0  0  0  0  0
  -14.7298  -24.6230   11.7057 C   0  0  0  0  0  0  0  0  0  0  0  0
  -14.4074  -24.6767   13.0689 C   0  0  0  0  0  0  0  0  0  0  0  0
  -12.9728  -24.8014   13.3889 C   0  0  0  0  0  0  0  0  0  0  0  0
  -12.2571  -23.9177   13.0990 O   0  0  0  0  0  0  0  0  0  0  0  0
  -12.6747  -26.1169   14.0474 N   0  0  0  0  0  0  0  0  0  0  0  0
  -11.3959  -26.6558   14.6239 C   0  0  0  0  0  0  0  0  0  0  0  0
  -10.1178  -26.0799   14.0122 C   0  0  0  0  0  0  0  0  0  0  0  0
   -9.9943  -26.4362   12.5378 C   0  0  0  0  0  0  0  0  0  0  0  0
   -9.2552  -25.3783   11.7104 C   0  0  0  0  0  0  0  0  0  0  0  0
   -9.7305  -24.0500   11.8494 O   0  0  0  0  0  0  0  0  0  0  0  0
  -11.3521  -26.7729   11.9350 C   0  0  0  0  0  0  0  0  0  0  0  0
  -12.3586  -27.1876   13.0182 C   0  0  0  0  0  0  0  0  0  0  0  0
  -14.2371  -26.2442   17.0964 N   0  0  0  0  0  0  0  0  0  0  0  0
  -14.4062  -27.6214   17.2402 O   0  0  0  0  0  0  0  0  0  0  0  0
  -14.6947  -31.3014   15.4550 H   0  0  0  0  0  0  0  0  0  0  0  0
  -13.5306  -30.1051   16.0404 H   0  0  0  0  0  0  0  0  0  0  0  0
  -14.3125  -29.8741   14.4730 H   0  0  0  0  0  0  0  0  0  0  0  0
  -15.7271  -29.8552   17.2044 H   0  0  0  0  0  0  0  0  0  0  0  0
  -17.6040  -29.1825   15.9128 H   0  0  0  0  0  0  0  0  0  0  0  0
  -16.7748  -29.2662   14.5352 H   0  0  0  0  0  0  0  0  0  0  0  0
  -15.9100  -24.0541   16.0895 H   0  0  0  0  0  0  0  0  0  0  0  0
  -14.1877  -23.9925   15.7493 H   0  0  0  0  0  0  0  0  0  0  0  0
  -17.5084  -24.1754   14.3626 H   0  0  0  0  0  0  0  0  0  0  0  0
  -18.0661  -24.0927   11.9738 H   0  0  0  0  0  0  0  0  0  0  0  0
  -16.3024  -24.3816   10.2557 H   0  0  0  0  0  0  0  0  0  0  0  0
  -13.9507  -24.7102   10.9523 H   0  0  0  0  0  0  0  0  0  0  0  0
  -11.4191  -26.2017   15.6282 H   0  0  0  0  0  0  0  0  0  0  0  0
  -11.3544  -27.7230   14.9022 H   0  0  0  0  0  0  0  0  0  0  0  0
  -10.1002  -24.9962   14.1704 H   0  0  0  0  0  0  0  0  0  0  0  0
   -9.2547  -26.4752   14.5600 H   0  0  0  0  0  0  0  0  0  0  0  0
   -9.3996  -27.3592   12.4804 H   0  0  0  0  0  0  0  0  0  0  0  0
   -8.1977  -25.3686   11.9917 H   0  0  0  0  0  0  0  0  0  0  0  0
   -9.2928  -25.6395   10.6472 H   0  0  0  0  0  0  0  0  0  0  0  0
  -10.6197  -24.0365   12.2665 H   0  0  0  0  0  0  0  0  0  0  0  0
  -11.7442  -25.9259   11.3607 H   0  0  0  0  0  0  0  0  0  0  0  0
  -11.2439  -27.5888   11.2094 H   0  0  0  0  0  0  0  0  0  0  0  0
  -12.2543  -28.2280   13.3728 H   0  0  0  0  0  0  0  0  0  0  0  0
  -13.3113  -27.2723   12.4700 H   0  0  0  0  0  0  0  0  0  0  0  0
  1  2  1  0
  2  3  1  0
  2  4  1  0
  4  5  2  0
  5  6  1  0
  6  7  1  0
  7  8  1  0
  8  9  2  0
  9 10  1  0
 10 11  2  0
 11 12  1  0
 12 13  2  0
 13 14  1  0
 14 15  2  0
 14 16  1  0
 16 17  1  0
 17 18  1  0
 18 19  1  0
 19 20  1  0
 20 21  1  0
 19 22  1  0
 22 23  1  0
  6 24  2  0
 24 25  1  0
 25  4  1  0
 13  8  1  0
 23 16  1  0
  1 26  1  0
  1 27  1  0
  1 28  1  0
  2 29  1  0
  3 30  1  0
  3 31  1  0
  7 32  1  0
  7 33  1  0
  9 34  1  0
 10 35  1  0
 11 36  1  0
 12 37  1  0
 17 38  1  0
 17 39  1  0
 18 40  1  0
 18 41  1  0
 19 42  1  0
 20 43  1  0
 20 44  1  0
 21 45  1  0
 22 46  1  0
 22 47  1  0
 23 48  1  0
 23 49  1  0
M  END
>  <Energy>  (361) 
155.10409514138277

>  <compound_id>  (361) 
1961

>  <target_id>  (361) 
1

>  <reference_id>  (361) 
112

>  <inspiration_ids>  (361) 
[112, 9]

>  <energy_score>  (361) 
28.254971617776278

>  <distance_score>  (361) 
1.618417526395489

>  <path>  (361) 
/opt/xchem-fragalysis-2/maxwin/BulkDock/SCRATCH/505734/C1961-P112/C1961-P112.minimised.mol

>  <scratch_subdir>  (361) 
/opt/xchem-fragalysis-2/maxwin/BulkDock/SCRATCH/505734/C1961-P112

>  <fragmenstein_runtime>  (361) 
6.66736626625061

>  <fragmenstein_outcome>  (361) 
too moved

>  <fragmenstein_mode>  (361) 
expansion

>  <fragmenstein_error>  (361) 


$$$$
C1961-P9
     RDKit          3D

 49 51  0  0  0  0  0  0  0  0999 V2000
   -9.8182  -25.7582   13.2042 C   0  0  0  0  0  0  0  0  0  0  0  0
  -10.6950  -24.5968   12.7458 C   0  0  0  0  0  0  0  0  0  0  0  0
  -10.0381  -23.3285   13.1061 N   0  0  0  0  0  0  0  0  0  0  0  0
  -12.0896  -24.7508   13.2712 C   0  0  0  0  0  0  0  0  0  0  0  0
  -12.7375  -25.8311   13.6578 N   0  0  0  0  0  0  0  0  0  0  0  0
  -14.0354  -25.3780   13.6985 C   0  0  0  0  0  0  0  0  0  0  0  0
  -15.1918  -26.3073   13.6122 C   0  0  0  0  0  0  0  0  0  0  0  0
  -15.9935  -25.9168   12.3788 C   0  0  0  0  0  0  0  0  0  0  0  0
  -17.3284  -25.5117   12.5507 C   0  0  0  0  0  0  0  0  0  0  0  0
  -18.0932  -25.0876   11.4618 C   0  0  0  0  0  0  0  0  0  0  0  0
  -17.5422  -25.0557   10.1819 C   0  0  0  0  0  0  0  0  0  0  0  0
  -16.2231  -25.4529    9.9809 C   0  0  0  0  0  0  0  0  0  0  0  0
  -15.4623  -25.9010   11.0644 C   0  0  0  0  0  0  0  0  0  0  0  0
  -14.0286  -26.1855   10.8231 C   0  0  0  0  0  0  0  0  0  0  0  0
  -13.3134  -25.2331   10.6536 O   0  0  0  0  0  0  0  0  0  0  0  0
  -13.7179  -27.5700   10.9280 N   0  0  0  0  0  0  0  0  0  0  0  0
  -12.3944  -28.2775   10.9741 C   0  0  0  0  0  0  0  0  0  0  0  0
  -11.2368  -27.5486   10.3151 C   0  0  0  0  0  0  0  0  0  0  0  0
  -11.4471  -27.3995    8.8196 C   0  0  0  0  0  0  0  0  0  0  0  0
  -10.8651  -26.0694    8.3178 C   0  0  0  0  0  0  0  0  0  0  0  0
   -9.5368  -25.8873    8.7953 O   0  0  0  0  0  0  0  0  0  0  0  0
  -12.9280  -27.5398    8.4512 C   0  0  0  0  0  0  0  0  0  0  0  0
  -13.7718  -28.2236    9.5549 C   0  0  0  0  0  0  0  0  0  0  0  0
  -14.1617  -24.0461   13.6233 N   0  0  0  0  0  0  0  0  0  0  0  0
  -12.8868  -23.6452   13.2253 O   0  0  0  0  0  0  0  0  0  0  0  0
   -8.8427  -25.7226   12.7092 H   0  0  0  0  0  0  0  0  0  0  0  0
  -10.2663  -26.7269   12.9615 H   0  0  0  0  0  0  0  0  0  0  0  0
   -9.6678  -25.7434   14.2897 H   0  0  0  0  0  0  0  0  0  0  0  0
  -10.7517  -24.6132   11.6529 H   0  0  0  0  0  0  0  0  0  0  0  0
  -10.6441  -22.5512   12.8344 H   0  0  0  0  0  0  0  0  0  0  0  0
   -9.9515  -23.2568   14.1209 H   0  0  0  0  0  0  0  0  0  0  0  0
  -14.8673  -27.3495   13.5263 H   0  0  0  0  0  0  0  0  0  0  0  0
  -15.7949  -26.2263   14.5235 H   0  0  0  0  0  0  0  0  0  0  0  0
  -17.7802  -25.4995   13.5408 H   0  0  0  0  0  0  0  0  0  0  0  0
  -19.1203  -24.7642   11.6164 H   0  0  0  0  0  0  0  0  0  0  0  0
  -18.1380  -24.7031    9.3436 H   0  0  0  0  0  0  0  0  0  0  0  0
  -15.7826  -25.3902    8.9896 H   0  0  0  0  0  0  0  0  0  0  0  0
  -12.1643  -28.2105   12.0494 H   0  0  0  0  0  0  0  0  0  0  0  0
  -12.3925  -29.3726   10.8430 H   0  0  0  0  0  0  0  0  0  0  0  0
  -10.2982  -28.0797   10.5148 H   0  0  0  0  0  0  0  0  0  0  0  0
  -11.1321  -26.5667   10.7765 H   0  0  0  0  0  0  0  0  0  0  0  0
  -10.8958  -28.2179    8.3369 H   0  0  0  0  0  0  0  0  0  0  0  0
  -10.8477  -26.0529    7.2229 H   0  0  0  0  0  0  0  0  0  0  0  0
  -11.4710  -25.2265    8.6641 H   0  0  0  0  0  0  0  0  0  0  0  0
   -9.2333  -25.0249    8.4363 H   0  0  0  0  0  0  0  0  0  0  0  0
  -13.0239  -28.1110    7.5196 H   0  0  0  0  0  0  0  0  0  0  0  0
  -13.3601  -26.5551    8.2330 H   0  0  0  0  0  0  0  0  0  0  0  0
  -13.7221  -29.3254    9.5409 H   0  0  0  0  0  0  0  0  0  0  0  0
  -14.8147  -28.0642    9.2371 H   0  0  0  0  0  0  0  0  0  0  0  0
  1  2  1  0
  2  3  1  0
  2  4  1  0
  4  5  2  0
  5  6  1  0
  6  7  1  0
  7  8  1  0
  8  9  2  0
  9 10  1  0
 10 11  2  0
 11 12  1  0
 12 13  2  0
 13 14  1  0
 14 15  2  0
 14 16  1  0
 16 17  1  0
 17 18  1  0
 18 19  1  0
 19 20  1  0
 20 21  1  0
 19 22  1  0
 22 23  1  0
  6 24  2  0
 24 25  1  0
 25  4  1  0
 13  8  1  0
 23 16  1  0
  1 26  1  0
  1 27  1  0
  1 28  1  0
  2 29  1  0
  3 30  1  0
  3 31  1  0
  7 32  1  0
  7 33  1  0
  9 34  1  0
 10 35  1  0
 11 36  1  0
 12 37  1  0
 17 38  1  0
 17 39  1  0
 18 40  1  0
 18 41  1  0
 19 42  1  0
 20 43  1  0
 20 44  1  0
 21 45  1  0
 22 46  1  0
 22 47  1  0
 23 48  1  0
 23 49  1  0
M  END
>  <Energy>  (362) 
154.90396456133709

>  <compound_id>  (362) 
1961

>  <target_id>  (362) 
1

>  <reference_id>  (362) 
9

>  <inspiration_ids>  (362) 
[112, 9]

>  <energy_score>  (362) 
37.578006549624234

>  <distance_score>  (362) 
3.8547574061820478

>  <path>  (362) 
/opt/xchem-fragalysis-2/maxwin/BulkDock/SCRATCH/505734/C1961-P9/C1961-P9.minimised.mol

>  <scratch_subdir>  (362) 
/opt/xchem-fragalysis-2/maxwin/BulkDock/SCRATCH/505734/C1961-P9

>  <fragmenstein_runtime>  (362) 
6.796961069107056

>  <fragmenstein_outcome>  (362) 
too moved

>  <fragmenstein_mode>  (362) 
expansion

>  <fragmenstein_error>  (362) 


$$$$
C3354-P112
     RDKit          3D

 39 41  0  0  0  0  0  0  0  0999 V2000
   -8.7177  -25.9173   10.1255 C   0  0  0  0  0  0  0  0  0  0  0  0
   -8.7567  -25.7034   11.6372 C   0  0  0  0  0  0  0  0  0  0  0  0
   -8.1368  -24.4580   11.9373 O   0  0  0  0  0  0  0  0  0  0  0  0
  -10.1964  -25.7605   12.1613 C   0  0  0  0  0  0  0  0  0  0  0  0
  -10.8111  -26.8617   11.4692 O   0  0  0  0  0  0  0  0  0  0  0  0
  -10.2929  -26.1293   13.6422 C   0  0  0  0  0  0  0  0  0  0  0  0
  -11.7639  -26.3783   14.0238 C   0  0  0  0  0  0  0  0  0  0  0  0
  -12.7348  -25.3226   13.4289 C   0  0  0  0  0  0  0  0  0  0  0  0
  -11.9554  -24.0925   12.9205 C   0  0  0  0  0  0  0  0  0  0  0  0
  -10.9044  -24.4168   11.8858 C   0  0  0  0  0  0  0  0  0  0  0  0
  -13.6374  -24.8809   14.5389 N   0  0  0  0  0  0  0  0  0  0  0  0
  -14.8438  -24.6438   13.8294 C   0  0  0  0  0  0  0  0  0  0  0  0
  -15.9888  -24.0682   14.3146 C   0  0  0  0  0  0  0  0  0  0  0  0
  -17.0806  -23.9166   13.4564 C   0  0  0  0  0  0  0  0  0  0  0  0
  -17.0334  -24.3979   12.1483 C   0  0  0  0  0  0  0  0  0  0  0  0
  -15.8987  -25.0642   11.7020 C   0  0  0  0  0  0  0  0  0  0  0  0
  -14.8268  -25.1950   12.5655 C   0  0  0  0  0  0  0  0  0  0  0  0
  -13.6098  -25.8752   12.3362 N   0  0  0  0  0  0  0  0  0  0  0  0
  -13.1273  -25.9047   11.0297 O   0  0  0  0  0  0  0  0  0  0  0  0
   -8.7069  -26.9904    9.9006 H   0  0  0  0  0  0  0  0  0  0  0  0
   -9.5857  -25.5123    9.6073 H   0  0  0  0  0  0  0  0  0  0  0  0
   -7.8195  -25.4785    9.6791 H   0  0  0  0  0  0  0  0  0  0  0  0
   -8.1552  -26.4934   12.1029 H   0  0  0  0  0  0  0  0  0  0  0  0
   -7.1960  -24.5507   11.6853 H   0  0  0  0  0  0  0  0  0  0  0  0
  -11.7697  -26.6911   11.3624 H   0  0  0  0  0  0  0  0  0  0  0  0
   -9.8646  -25.3396   14.2702 H   0  0  0  0  0  0  0  0  0  0  0  0
   -9.7296  -27.0466   13.8540 H   0  0  0  0  0  0  0  0  0  0  0  0
  -11.8086  -26.3926   15.1208 H   0  0  0  0  0  0  0  0  0  0  0  0
  -12.0652  -27.3843   13.7044 H   0  0  0  0  0  0  0  0  0  0  0  0
  -12.6323  -23.3256   12.5352 H   0  0  0  0  0  0  0  0  0  0  0  0
  -11.4169  -23.6416   13.7501 H   0  0  0  0  0  0  0  0  0  0  0  0
  -10.2197  -23.5648   11.8983 H   0  0  0  0  0  0  0  0  0  0  0  0
  -11.3504  -24.4194   10.8890 H   0  0  0  0  0  0  0  0  0  0  0  0
  -13.8451  -25.6886   15.1273 H   0  0  0  0  0  0  0  0  0  0  0  0
  -16.0491  -23.7276   15.3397 H   0  0  0  0  0  0  0  0  0  0  0  0
  -17.9838  -23.4295   13.8190 H   0  0  0  0  0  0  0  0  0  0  0  0
  -17.8951  -24.2854   11.4954 H   0  0  0  0  0  0  0  0  0  0  0  0
  -15.8745  -25.5021   10.7097 H   0  0  0  0  0  0  0  0  0  0  0  0
  -13.4823  -25.0929   10.6154 H   0  0  0  0  0  0  0  0  0  0  0  0
  1  2  1  0
  2  3  1  0
  2  4  1  0
  4  5  1  0
  4  6  1  0
  6  7  1  0
  7  8  1  0
  8  9  1  0
  9 10  1  0
  8 11  1  0
 11 12  1  0
 12 13  2  0
 13 14  1  0
 14 15  2  0
 15 16  1  0
 16 17  2  0
 17 18  1  0
 18 19  1  0
 10  4  1  0
 17 12  1  0
 18  8  1  0
  1 20  1  0
  1 21  1  0
  1 22  1  0
  2 23  1  0
  3 24  1  0
  5 25  1  0
  6 26  1  0
  6 27  1  0
  7 28  1  0
  7 29  1  0
  9 30  1  0
  9 31  1  0
 10 32  1  0
 10 33  1  0
 11 34  1  0
 13 35  1  0
 14 36  1  0
 15 37  1  0
 16 38  1  0
 19 39  1  0
M  END
>  <Energy>  (363) 
92.917926108823792

>  <compound_id>  (363) 
3354

>  <target_id>  (363) 
1

>  <reference_id>  (363) 
112

>  <inspiration_ids>  (363) 
[112, 28]

>  <energy_score>  (363) 
-38.64423199054676

>  <distance_score>  (363) 
2.2715234008846514

>  <path>  (363) 
/opt/xchem-fragalysis-2/maxwin/BulkDock/SCRATCH/505734/C3354-P112/C3354-P112.minimised.mol

>  <scratch_subdir>  (363) 
/opt/xchem-fragalysis-2/maxwin/BulkDock/SCRATCH/505734/C3354-P112

>  <fragmenstein_runtime>  (363) 
2.8211894035339355

>  <fragmenstein_outcome>  (363) 
too moved

>  <fragmenstein_mode>  (363) 
expansion

>  <fragmenstein_error>  (363) 


$$$$
C3354-P28
     RDKit          3D

 39 41  0  0  0  0  0  0  0  0999 V2000
   -8.4841  -26.1885   10.1385 C   0  0  0  0  0  0  0  0  0  0  0  0
   -8.5471  -25.6255   11.5500 C   0  0  0  0  0  0  0  0  0  0  0  0
   -7.7154  -24.4747   11.6338 O   0  0  0  0  0  0  0  0  0  0  0  0
   -9.9872  -25.2802   11.9325 C   0  0  0  0  0  0  0  0  0  0  0  0
  -10.6139  -24.6875   10.7811 O   0  0  0  0  0  0  0  0  0  0  0  0
  -10.6946  -26.5895   12.3388 C   0  0  0  0  0  0  0  0  0  0  0  0
  -11.8584  -26.3835   13.2977 C   0  0  0  0  0  0  0  0  0  0  0  0
  -12.5201  -25.0031   13.1759 C   0  0  0  0  0  0  0  0  0  0  0  0
  -11.4740  -23.8704   13.3373 C   0  0  0  0  0  0  0  0  0  0  0  0
  -10.0471  -24.2598   13.0495 C   0  0  0  0  0  0  0  0  0  0  0  0
  -13.4981  -24.9021   14.2878 N   0  0  0  0  0  0  0  0  0  0  0  0
  -14.6868  -24.5476   13.6220 C   0  0  0  0  0  0  0  0  0  0  0  0
  -15.9202  -24.3807   14.2056 C   0  0  0  0  0  0  0  0  0  0  0  0
  -17.0122  -24.0881   13.3869 C   0  0  0  0  0  0  0  0  0  0  0  0
  -16.8569  -23.9719   12.0047 C   0  0  0  0  0  0  0  0  0  0  0  0
  -15.6054  -24.1674   11.4287 C   0  0  0  0  0  0  0  0  0  0  0  0
  -14.5343  -24.4634   12.2532 C   0  0  0  0  0  0  0  0  0  0  0  0
  -13.2171  -24.7790   11.8546 N   0  0  0  0  0  0  0  0  0  0  0  0
  -13.0756  -25.7965   10.9090 O   0  0  0  0  0  0  0  0  0  0  0  0
   -8.6975  -25.4426    9.3710 H   0  0  0  0  0  0  0  0  0  0  0  0
   -9.1509  -27.0446   10.0020 H   0  0  0  0  0  0  0  0  0  0  0  0
   -7.4638  -26.5322    9.9296 H   0  0  0  0  0  0  0  0  0  0  0  0
   -8.1244  -26.3533   12.2505 H   0  0  0  0  0  0  0  0  0  0  0  0
   -6.8353  -24.7181   11.2898 H   0  0  0  0  0  0  0  0  0  0  0  0
  -11.5829  -24.8024   10.8664 H   0  0  0  0  0  0  0  0  0  0  0  0
   -9.9988  -27.2791   12.8341 H   0  0  0  0  0  0  0  0  0  0  0  0
  -11.0480  -27.1155   11.4440 H   0  0  0  0  0  0  0  0  0  0  0  0
  -11.4796  -26.5070   14.3229 H   0  0  0  0  0  0  0  0  0  0  0  0
  -12.5915  -27.1891   13.1587 H   0  0  0  0  0  0  0  0  0  0  0  0
  -11.7522  -22.9960   12.7437 H   0  0  0  0  0  0  0  0  0  0  0  0
  -11.4286  -23.5387   14.3579 H   0  0  0  0  0  0  0  0  0  0  0  0
   -9.6032  -24.6817   13.9578 H   0  0  0  0  0  0  0  0  0  0  0  0
   -9.4988  -23.3419   12.8076 H   0  0  0  0  0  0  0  0  0  0  0  0
  -13.6617  -25.8023   14.7317 H   0  0  0  0  0  0  0  0  0  0  0  0
  -16.0424  -24.4589   15.2809 H   0  0  0  0  0  0  0  0  0  0  0  0
  -17.9926  -23.9379   13.8332 H   0  0  0  0  0  0  0  0  0  0  0  0
  -17.7141  -23.7346   11.3798 H   0  0  0  0  0  0  0  0  0  0  0  0
  -15.4814  -24.0895   10.3547 H   0  0  0  0  0  0  0  0  0  0  0  0
  -13.5898  -25.4788   10.1412 H   0  0  0  0  0  0  0  0  0  0  0  0
  1  2  1  0
  2  3  1  0
  2  4  1  0
  4  5  1  0
  4  6  1  0
  6  7  1  0
  7  8  1  0
  8  9  1  0
  9 10  1  0
  8 11  1  0
 11 12  1  0
 12 13  2  0
 13 14  1  0
 14 15  2  0
 15 16  1  0
 16 17  2  0
 17 18  1  0
 18 19  1  0
 10  4  1  0
 17 12  1  0
 18  8  1  0
  1 20  1  0
  1 21  1  0
  1 22  1  0
  2 23  1  0
  3 24  1  0
  5 25  1  0
  6 26  1  0
  6 27  1  0
  7 28  1  0
  7 29  1  0
  9 30  1  0
  9 31  1  0
 10 32  1  0
 10 33  1  0
 11 34  1  0
 13 35  1  0
 14 36  1  0
 15 37  1  0
 16 38  1  0
 19 39  1  0
M  END
>  <Energy>  (364) 
89.492724240342753

>  <compound_id>  (364) 
3354

>  <target_id>  (364) 
1

>  <reference_id>  (364) 
28

>  <inspiration_ids>  (364) 
[112, 28]

>  <energy_score>  (364) 
-42.06943385902915

>  <distance_score>  (364) 
2.1990856074289837

>  <path>  (364) 
/opt/xchem-fragalysis-2/maxwin/BulkDock/SCRATCH/505734/C3354-P28/C3354-P28.minimised.mol

>  <scratch_subdir>  (364) 
/opt/xchem-fragalysis-2/maxwin/BulkDock/SCRATCH/505734/C3354-P28

>  <fragmenstein_runtime>  (364) 
2.8250629901885986

>  <fragmenstein_outcome>  (364) 
too moved

>  <fragmenstein_mode>  (364) 
expansion

>  <fragmenstein_error>  (364) 


$$$$
C3355-P112
     RDKit          3D

 49 51  0  0  0  0  0  0  0  0999 V2000
  -17.3106  -22.1105   10.9638 O   0  0  0  0  0  0  0  0  0  0  0  0
  -17.1102  -22.3928   12.1113 C   0  0  0  0  0  0  0  0  0  0  0  0
  -16.4115  -23.5225   12.7022 N   0  0  0  0  0  0  0  0  0  0  0  0
  -15.8490  -24.6556   12.1175 C   0  0  0  0  0  0  0  0  0  0  0  0
  -15.8383  -24.8302   10.7325 C   0  0  0  0  0  0  0  0  0  0  0  0
  -15.3624  -26.0178   10.1716 C   0  0  0  0  0  0  0  0  0  0  0  0
  -14.8946  -27.0397   10.9938 C   0  0  0  0  0  0  0  0  0  0  0  0
  -14.8638  -26.8493   12.3761 C   0  0  0  0  0  0  0  0  0  0  0  0
  -14.4111  -27.9624   13.2416 C   0  0  0  0  0  0  0  0  0  0  0  0
  -14.9374  -29.0596   13.1364 O   0  0  0  0  0  0  0  0  0  0  0  0
  -13.4694  -27.6134   14.1814 N   0  0  0  0  0  0  0  0  0  0  0  0
  -11.8255  -27.9596   13.4371 C   0  0  0  0  0  0  0  0  0  0  0  0
  -11.1882  -26.8524   12.3228 C   0  0  0  0  0  0  0  0  0  0  0  0
  -10.4995  -25.8524   13.2113 C   0  0  0  0  0  0  0  0  0  0  0  0
  -10.4305  -24.4457   12.6440 C   0  0  0  0  0  0  0  0  0  0  0  0
   -9.4581  -24.3803   11.6074 O   0  0  0  0  0  0  0  0  0  0  0  0
  -11.3572  -26.0033   14.4351 C   0  0  0  0  0  0  0  0  0  0  0  0
  -12.0044  -27.6387   14.2866 C   0  0  0  0  0  0  0  0  0  0  0  0
  -15.3308  -25.6555   12.9441 C   0  0  0  0  0  0  0  0  0  0  0  0
  -17.5348  -21.4598   13.2746 C   0  0  0  0  0  0  0  0  0  0  0  0
  -18.5764  -20.4067   12.8756 C   0  0  0  0  0  0  0  0  0  0  0  0
  -19.9047  -20.9524   12.8207 O   0  0  0  0  0  0  0  0  0  0  0  0
  -20.2372  -21.5706   14.0663 C   0  0  0  0  0  0  0  0  0  0  0  0
  -19.2583  -22.7038   14.3460 C   0  0  0  0  0  0  0  0  0  0  0  0
  -17.9129  -22.2110   14.4448 O   0  0  0  0  0  0  0  0  0  0  0  0
  -16.5094  -23.4810   13.7156 H   0  0  0  0  0  0  0  0  0  0  0  0
  -16.2319  -24.0664   10.0663 H   0  0  0  0  0  0  0  0  0  0  0  0
  -15.3902  -26.1542    9.0930 H   0  0  0  0  0  0  0  0  0  0  0  0
  -14.5686  -27.9825   10.5615 H   0  0  0  0  0  0  0  0  0  0  0  0
  -11.2709  -29.0512   13.4398 H   0  0  0  0  0  0  0  0  0  0  0  0
  -12.3429  -28.4722   12.5205 H   0  0  0  0  0  0  0  0  0  0  0  0
  -10.4828  -27.3682   11.6625 H   0  0  0  0  0  0  0  0  0  0  0  0
  -12.0001  -26.4181   11.7299 H   0  0  0  0  0  0  0  0  0  0  0  0
   -9.4870  -26.2170   13.4256 H   0  0  0  0  0  0  0  0  0  0  0  0
  -11.3936  -24.1202   12.2375 H   0  0  0  0  0  0  0  0  0  0  0  0
  -10.1321  -23.7318   13.4178 H   0  0  0  0  0  0  0  0  0  0  0  0
   -9.5317  -25.1818   11.0585 H   0  0  0  0  0  0  0  0  0  0  0  0
  -10.7727  -25.9258   15.3580 H   0  0  0  0  0  0  0  0  0  0  0  0
  -12.2085  -25.3134   14.4496 H   0  0  0  0  0  0  0  0  0  0  0  0
  -12.3116  -27.3774   15.3825 H   0  0  0  0  0  0  0  0  0  0  0  0
  -11.4592  -28.4193   15.1082 H   0  0  0  0  0  0  0  0  0  0  0  0
  -15.3394  -25.5468   14.0249 H   0  0  0  0  0  0  0  0  0  0  0  0
  -16.6136  -20.9281   13.5364 H   0  0  0  0  0  0  0  0  0  0  0  0
  -18.3528  -19.9625   11.9007 H   0  0  0  0  0  0  0  0  0  0  0  0
  -18.5835  -19.5944   13.6128 H   0  0  0  0  0  0  0  0  0  0  0  0
  -21.2577  -21.9572   13.9914 H   0  0  0  0  0  0  0  0  0  0  0  0
  -20.2091  -20.8145   14.8593 H   0  0  0  0  0  0  0  0  0  0  0  0
  -19.2969  -23.4580   13.5521 H   0  0  0  0  0  0  0  0  0  0  0  0
  -19.5028  -23.1932   15.2934 H   0  0  0  0  0  0  0  0  0  0  0  0
  1  2  2  0
  2  3  1  0
  3  4  1  0
  4  5  2  0
  5  6  1  0
  6  7  2  0
  7  8  1  0
  8  9  1  0
  9 10  2  0
  9 11  1  0
 11 12  1  0
 12 13  1  0
 13 14  1  0
 14 15  1  0
 15 16  1  0
 14 17  1  0
 17 18  1  0
  8 19  2  0
  2 20  1  0
 20 21  1  0
 21 22  1  0
 22 23  1  0
 23 24  1  0
 24 25  1  0
 19  4  1  0
 25 20  1  0
 18 11  1  0
  3 26  1  0
  5 27  1  0
  6 28  1  0
  7 29  1  0
 12 30  1  0
 12 31  1  0
 13 32  1  0
 13 33  1  0
 14 34  1  0
 15 35  1  0
 15 36  1  0
 16 37  1  0
 17 38  1  0
 17 39  1  0
 18 40  1  0
 18 41  1  0
 19 42  1  0
 20 43  1  0
 21 44  1  0
 21 45  1  0
 23 46  1  0
 23 47  1  0
 24 48  1  0
 24 49  1  0
M  END
>  <Energy>  (365) 
650.00504230303864

>  <compound_id>  (365) 
3355

>  <target_id>  (365) 
1

>  <reference_id>  (365) 
112

>  <inspiration_ids>  (365) 
[112, 30]

>  <energy_score>  (365) 
500.37090081460644

>  <distance_score>  (365) 
2.3000196140340665

>  <path>  (365) 
/opt/xchem-fragalysis-2/maxwin/BulkDock/SCRATCH/505734/C3355-P112/C3355-P112.minimised.mol

>  <scratch_subdir>  (365) 
/opt/xchem-fragalysis-2/maxwin/BulkDock/SCRATCH/505734/C3355-P112

>  <fragmenstein_runtime>  (365) 
3.948052167892456

>  <fragmenstein_outcome>  (365) 
too moved

>  <fragmenstein_mode>  (365) 
expansion

>  <fragmenstein_error>  (365) 


$$$$
C3355-P30
     RDKit          3D

 49 51  0  0  0  0  0  0  0  0999 V2000
  -18.7889  -23.1070   10.8374 O   0  0  0  0  0  0  0  0  0  0  0  0
  -18.2674  -23.2249   11.9130 C   0  0  0  0  0  0  0  0  0  0  0  0
  -17.2779  -24.1834   12.3898 N   0  0  0  0  0  0  0  0  0  0  0  0
  -16.5785  -25.1854   11.7173 C   0  0  0  0  0  0  0  0  0  0  0  0
  -16.7214  -25.3354   10.3354 C   0  0  0  0  0  0  0  0  0  0  0  0
  -16.0830  -26.3750    9.6622 C   0  0  0  0  0  0  0  0  0  0  0  0
  -15.3079  -27.2837   10.3721 C   0  0  0  0  0  0  0  0  0  0  0  0
  -15.1417  -27.1310   11.7525 C   0  0  0  0  0  0  0  0  0  0  0  0
  -14.3406  -28.1655   12.4545 C   0  0  0  0  0  0  0  0  0  0  0  0
  -14.4754  -29.3392   12.1401 O   0  0  0  0  0  0  0  0  0  0  0  0
  -13.5615  -27.7143   13.4936 N   0  0  0  0  0  0  0  0  0  0  0  0
  -11.8989  -27.3759   12.7987 C   0  0  0  0  0  0  0  0  0  0  0  0
  -11.7356  -25.9410   11.9096 C   0  0  0  0  0  0  0  0  0  0  0  0
  -11.5928  -24.8704   12.9618 C   0  0  0  0  0  0  0  0  0  0  0  0
  -10.1566  -24.3794   13.0984 C   0  0  0  0  0  0  0  0  0  0  0  0
   -9.8020  -23.6091   11.9600 O   0  0  0  0  0  0  0  0  0  0  0  0
  -12.0505  -25.6203   14.1847 C   0  0  0  0  0  0  0  0  0  0  0  0
  -12.1648  -27.2915   13.6801 C   0  0  0  0  0  0  0  0  0  0  0  0
  -15.7577  -26.0663   12.4301 C   0  0  0  0  0  0  0  0  0  0  0  0
  -18.6381  -22.2306   13.0571 C   0  0  0  0  0  0  0  0  0  0  0  0
  -17.4755  -21.2619   13.2907 C   0  0  0  0  0  0  0  0  0  0  0  0
  -17.2392  -20.4285   12.1538 O   0  0  0  0  0  0  0  0  0  0  0  0
  -18.4497  -19.9636   11.5378 C   0  0  0  0  0  0  0  0  0  0  0  0
  -19.6888  -20.1711   12.4092 C   0  0  0  0  0  0  0  0  0  0  0  0
  -19.8689  -21.5388   12.8067 O   0  0  0  0  0  0  0  0  0  0  0  0
  -17.1260  -24.0377   13.3788 H   0  0  0  0  0  0  0  0  0  0  0  0
  -17.3465  -24.6601    9.7558 H   0  0  0  0  0  0  0  0  0  0  0  0
  -16.2182  -26.4906    8.5896 H   0  0  0  0  0  0  0  0  0  0  0  0
  -14.8444  -28.1199    9.8524 H   0  0  0  0  0  0  0  0  0  0  0  0
  -12.2102  -27.8843   11.7902 H   0  0  0  0  0  0  0  0  0  0  0  0
  -10.9920  -28.1838   12.6421 H   0  0  0  0  0  0  0  0  0  0  0  0
  -10.8654  -26.0288   11.2501 H   0  0  0  0  0  0  0  0  0  0  0  0
  -12.6323  -25.7861   11.3002 H   0  0  0  0  0  0  0  0  0  0  0  0
  -12.2471  -24.0210   12.7372 H   0  0  0  0  0  0  0  0  0  0  0  0
  -10.0299  -23.7545   13.9887 H   0  0  0  0  0  0  0  0  0  0  0  0
   -9.4583  -25.2193   13.1713 H   0  0  0  0  0  0  0  0  0  0  0  0
  -10.2523  -22.7470   12.0555 H   0  0  0  0  0  0  0  0  0  0  0  0
  -11.3364  -25.5661   15.0154 H   0  0  0  0  0  0  0  0  0  0  0  0
  -13.0442  -25.2909   14.5133 H   0  0  0  0  0  0  0  0  0  0  0  0
  -11.4082  -28.0253   14.3704 H   0  0  0  0  0  0  0  0  0  0  0  0
  -12.5317  -27.3624   14.7871 H   0  0  0  0  0  0  0  0  0  0  0  0
  -15.6456  -25.9812   13.5062 H   0  0  0  0  0  0  0  0  0  0  0  0
  -18.8100  -22.8246   13.9623 H   0  0  0  0  0  0  0  0  0  0  0  0
  -16.5421  -21.7888   13.5102 H   0  0  0  0  0  0  0  0  0  0  0  0
  -17.6933  -20.6114   14.1444 H   0  0  0  0  0  0  0  0  0  0  0  0
  -18.3206  -18.9038   11.3002 H   0  0  0  0  0  0  0  0  0  0  0  0
  -18.5562  -20.5020   10.5909 H   0  0  0  0  0  0  0  0  0  0  0  0
  -20.5901  -19.8566   11.8741 H   0  0  0  0  0  0  0  0  0  0  0  0
  -19.6210  -19.5681   13.3219 H   0  0  0  0  0  0  0  0  0  0  0  0
  1  2  2  0
  2  3  1  0
  3  4  1  0
  4  5  2  0
  5  6  1  0
  6  7  2  0
  7  8  1  0
  8  9  1  0
  9 10  2  0
  9 11  1  0
 11 12  1  0
 12 13  1  0
 13 14  1  0
 14 15  1  0
 15 16  1  0
 14 17  1  0
 17 18  1  0
  8 19  2  0
  2 20  1  0
 20 21  1  0
 21 22  1  0
 22 23  1  0
 23 24  1  0
 24 25  1  0
 19  4  1  0
 25 20  1  0
 18 11  1  0
  3 26  1  0
  5 27  1  0
  6 28  1  0
  7 29  1  0
 12 30  1  0
 12 31  1  0
 13 32  1  0
 13 33  1  0
 14 34  1  0
 15 35  1  0
 15 36  1  0
 16 37  1  0
 17 38  1  0
 17 39  1  0
 18 40  1  0
 18 41  1  0
 19 42  1  0
 20 43  1  0
 21 44  1  0
 21 45  1  0
 23 46  1  0
 23 47  1  0
 24 48  1  0
 24 49  1  0
M  END
>  <Energy>  (366) 
661.95960745889317

>  <compound_id>  (366) 
3355

>  <target_id>  (366) 
1

>  <reference_id>  (366) 
30

>  <inspiration_ids>  (366) 
[112, 30]

>  <energy_score>  (366) 
512.3254659704637

>  <distance_score>  (366) 
2.6014943271383473

>  <path>  (366) 
/opt/xchem-fragalysis-2/maxwin/BulkDock/SCRATCH/505734/C3355-P30/C3355-P30.minimised.mol

>  <scratch_subdir>  (366) 
/opt/xchem-fragalysis-2/maxwin/BulkDock/SCRATCH/505734/C3355-P30

>  <fragmenstein_runtime>  (366) 
6.589967966079712

>  <fragmenstein_outcome>  (366) 
too moved

>  <fragmenstein_mode>  (366) 
expansion

>  <fragmenstein_error>  (366) 


$$$$
C662-P112
     RDKit          3D

 55 57  0  0  0  0  0  0  0  0999 V2000
  -13.1410  -27.4838   17.5726 N   0  0  0  0  0  0  0  0  0  0  0  0
  -14.3326  -27.1182   16.4613 S   0  0  0  0  0  0  0  0  0  0  0  0
  -14.2865  -25.6822   16.3251 O   0  0  0  0  0  0  0  0  0  0  0  0
  -15.5030  -27.7906   16.9783 O   0  0  0  0  0  0  0  0  0  0  0  0
  -13.7538  -27.9661   14.9642 C   0  0  0  0  0  0  0  0  0  0  0  0
  -14.9457  -28.3259   14.0695 C   0  0  0  0  0  0  0  0  0  0  0  0
  -14.5391  -28.5962   12.6314 C   0  0  0  0  0  0  0  0  0  0  0  0
  -13.6800  -27.5070   11.9696 C   0  0  0  0  0  0  0  0  0  0  0  0
  -13.0919  -26.4223   12.9275 C   0  0  0  0  0  0  0  0  0  0  0  0
  -14.1199  -25.2689   13.2587 C   0  0  0  0  0  0  0  0  0  0  0  0
  -15.0774  -24.5393   12.2985 N   0  0  0  0  0  0  0  0  0  0  0  0
  -16.2761  -25.2947   12.1399 C   0  0  0  0  0  0  0  0  0  0  0  0
  -16.5669  -26.1395   11.3361 O   0  0  0  0  0  0  0  0  0  0  0  0
  -17.3402  -24.8963   13.1237 C   0  0  0  0  0  0  0  0  0  0  0  0
  -18.3895  -25.7926   13.3765 C   0  0  0  0  0  0  0  0  0  0  0  0
  -19.4008  -25.4604   14.2795 C   0  0  0  0  0  0  0  0  0  0  0  0
  -19.3771  -24.2261   14.9255 C   0  0  0  0  0  0  0  0  0  0  0  0
  -18.3460  -23.3233   14.6689 C   0  0  0  0  0  0  0  0  0  0  0  0
  -17.3253  -23.6560   13.7748 C   0  0  0  0  0  0  0  0  0  0  0  0
  -13.8434  -24.4738   11.4489 C   0  0  0  0  0  0  0  0  0  0  0  0
  -12.3836  -24.2829   11.8489 C   0  0  0  0  0  0  0  0  0  0  0  0
  -11.8602  -25.6191   12.3710 C   0  0  0  0  0  0  0  0  0  0  0  0
  -10.9707  -26.3135   11.3377 C   0  0  0  0  0  0  0  0  0  0  0  0
   -9.8361  -25.4849   11.0844 O   0  0  0  0  0  0  0  0  0  0  0  0
  -12.6248  -27.2436   14.1935 C   0  0  0  0  0  0  0  0  0  0  0  0
  -11.7682  -26.5050   15.0531 O   0  0  0  0  0  0  0  0  0  0  0  0
  -10.6214  -27.2263   15.4901 C   0  0  0  0  0  0  0  0  0  0  0  0
  -10.8670  -28.5586   15.4721 F   0  0  0  0  0  0  0  0  0  0  0  0
  -10.4407  -26.8936   16.7834 F   0  0  0  0  0  0  0  0  0  0  0  0
  -12.5353  -26.6807   17.7510 H   0  0  0  0  0  0  0  0  0  0  0  0
  -13.5436  -27.9007   18.4114 H   0  0  0  0  0  0  0  0  0  0  0  0
  -13.3469  -28.9112   15.3505 H   0  0  0  0  0  0  0  0  0  0  0  0
  -15.4405  -29.2180   14.4751 H   0  0  0  0  0  0  0  0  0  0  0  0
  -15.7167  -27.5503   14.0905 H   0  0  0  0  0  0  0  0  0  0  0  0
  -15.4360  -28.7717   12.0251 H   0  0  0  0  0  0  0  0  0  0  0  0
  -13.9783  -29.5402   12.6053 H   0  0  0  0  0  0  0  0  0  0  0  0
  -12.8583  -28.0394   11.4749 H   0  0  0  0  0  0  0  0  0  0  0  0
  -14.2512  -27.0862   11.1436 H   0  0  0  0  0  0  0  0  0  0  0  0
  -13.6575  -24.4946   13.8961 H   0  0  0  0  0  0  0  0  0  0  0  0
  -14.8239  -25.7044   13.9678 H   0  0  0  0  0  0  0  0  0  0  0  0
  -18.4220  -26.7538   12.8685 H   0  0  0  0  0  0  0  0  0  0  0  0
  -20.2083  -26.1611   14.4740 H   0  0  0  0  0  0  0  0  0  0  0  0
  -20.1650  -23.9615   15.6265 H   0  0  0  0  0  0  0  0  0  0  0  0
  -18.3420  -22.3548   15.1637 H   0  0  0  0  0  0  0  0  0  0  0  0
  -16.5366  -22.9330   13.5830 H   0  0  0  0  0  0  0  0  0  0  0  0
  -13.9258  -25.2276   10.6559 H   0  0  0  0  0  0  0  0  0  0  0  0
  -14.0784  -23.5738   10.8643 H   0  0  0  0  0  0  0  0  0  0  0  0
  -11.8063  -23.9599   10.9782 H   0  0  0  0  0  0  0  0  0  0  0  0
  -12.2796  -23.4935   12.6018 H   0  0  0  0  0  0  0  0  0  0  0  0
  -11.1873  -25.3321   13.1886 H   0  0  0  0  0  0  0  0  0  0  0  0
  -11.4976  -26.4694   10.3911 H   0  0  0  0  0  0  0  0  0  0  0  0
  -10.6072  -27.2734   11.7162 H   0  0  0  0  0  0  0  0  0  0  0  0
   -9.3205  -25.9079   10.3719 H   0  0  0  0  0  0  0  0  0  0  0  0
  -12.0160  -28.0423   13.7413 H   0  0  0  0  0  0  0  0  0  0  0  0
   -9.7363  -26.9836   14.8960 H   0  0  0  0  0  0  0  0  0  0  0  0
  1  2  1  0
  2  3  2  0
  2  4  2  0
  2  5  1  0
  5  6  1  0
  6  7  1  0
  7  8  1  0
  8  9  1  0
  9 10  1  0
 10 11  1  0
 11 12  1  0
 12 13  2  0
 12 14  1  0
 14 15  2  0
 15 16  1  0
 16 17  2  0
 17 18  1  0
 18 19  2  0
 11 20  1  0
 20 21  1  0
 21 22  1  0
 22 23  1  0
 23 24  1  0
  9 25  1  0
 25 26  1  0
 26 27  1  0
 27 28  1  0
 27 29  1  0
 25  5  1  0
 22  9  1  0
 19 14  1  0
  1 30  1  0
  1 31  1  0
  5 32  1  0
  6 33  1  0
  6 34  1  0
  7 35  1  0
  7 36  1  0
  8 37  1  0
  8 38  1  0
 10 39  1  0
 10 40  1  0
 15 41  1  0
 16 42  1  0
 17 43  1  0
 18 44  1  0
 19 45  1  0
 20 46  1  0
 20 47  1  0
 21 48  1  0
 21 49  1  0
 22 50  1  0
 23 51  1  0
 23 52  1  0
 24 53  1  0
 25 54  1  0
 27 55  1  0
M  END
>  <Energy>  (367) 
59.001103765024254

>  <compound_id>  (367) 
662

>  <target_id>  (367) 
1

>  <reference_id>  (367) 
112

>  <inspiration_ids>  (367) 
[112, 77]

>  <energy_score>  (367) 
2.4858838223655937

>  <distance_score>  (367) 
2.608606474760316

>  <path>  (367) 
/opt/xchem-fragalysis-2/maxwin/BulkDock/SCRATCH/505734/C662-P112/C662-P112.minimised.mol

>  <scratch_subdir>  (367) 
/opt/xchem-fragalysis-2/maxwin/BulkDock/SCRATCH/505734/C662-P112

>  <fragmenstein_runtime>  (367) 
4.274358749389648

>  <fragmenstein_outcome>  (367) 
too moved

>  <fragmenstein_mode>  (367) 
expansion

>  <fragmenstein_error>  (367) 


$$$$
C662-P77
     RDKit          3D

 55 57  0  0  0  0  0  0  0  0999 V2000
  -13.4993  -31.3932   15.1142 N   0  0  0  0  0  0  0  0  0  0  0  0
  -12.2281  -30.6368   14.2989 S   0  0  0  0  0  0  0  0  0  0  0  0
  -11.9979  -31.4480   13.1258 O   0  0  0  0  0  0  0  0  0  0  0  0
  -11.2141  -30.4843   15.3155 O   0  0  0  0  0  0  0  0  0  0  0  0
  -13.0587  -29.0938   13.8484 C   0  0  0  0  0  0  0  0  0  0  0  0
  -14.0376  -29.3421   12.6684 C   0  0  0  0  0  0  0  0  0  0  0  0
  -13.6080  -28.7164   11.3359 C   0  0  0  0  0  0  0  0  0  0  0  0
  -13.0597  -27.2757   11.3817 C   0  0  0  0  0  0  0  0  0  0  0  0
  -12.7710  -26.7430   12.8242 C   0  0  0  0  0  0  0  0  0  0  0  0
  -14.2170  -26.3003   13.3519 C   0  0  0  0  0  0  0  0  0  0  0  0
  -14.3419  -25.3997   14.5516 N   0  0  0  0  0  0  0  0  0  0  0  0
  -15.5610  -25.6839   15.2570 C   0  0  0  0  0  0  0  0  0  0  0  0
  -16.6596  -25.2104   15.1404 O   0  0  0  0  0  0  0  0  0  0  0  0
  -15.4772  -26.8142   16.2188 C   0  0  0  0  0  0  0  0  0  0  0  0
  -16.4620  -27.8115   16.1589 C   0  0  0  0  0  0  0  0  0  0  0  0
  -16.4161  -28.8992   17.0310 C   0  0  0  0  0  0  0  0  0  0  0  0
  -15.3955  -28.9864   17.9748 C   0  0  0  0  0  0  0  0  0  0  0  0
  -14.4332  -27.9806   18.0539 C   0  0  0  0  0  0  0  0  0  0  0  0
  -14.4759  -26.8927   17.1775 C   0  0  0  0  0  0  0  0  0  0  0  0
  -14.0283  -24.3451   13.5248 C   0  0  0  0  0  0  0  0  0  0  0  0
  -12.7627  -24.2824   12.6709 C   0  0  0  0  0  0  0  0  0  0  0  0
  -11.8705  -25.4818   12.8501 C   0  0  0  0  0  0  0  0  0  0  0  0
  -10.6950  -25.3940   11.8669 C   0  0  0  0  0  0  0  0  0  0  0  0
   -9.8544  -26.5200   11.9896 O   0  0  0  0  0  0  0  0  0  0  0  0
  -12.0623  -27.9715   13.5352 C   0  0  0  0  0  0  0  0  0  0  0  0
  -11.1098  -27.6461   14.5402 O   0  0  0  0  0  0  0  0  0  0  0  0
  -11.5465  -27.2486   15.8047 C   0  0  0  0  0  0  0  0  0  0  0  0
  -10.4557  -27.0178   16.5682 F   0  0  0  0  0  0  0  0  0  0  0  0
  -12.2050  -28.2730   16.3797 F   0  0  0  0  0  0  0  0  0  0  0  0
  -13.6901  -32.3001   14.6844 H   0  0  0  0  0  0  0  0  0  0  0  0
  -13.2740  -31.4489   16.1098 H   0  0  0  0  0  0  0  0  0  0  0  0
  -13.6339  -28.8379   14.7432 H   0  0  0  0  0  0  0  0  0  0  0  0
  -14.2123  -30.4122   12.5050 H   0  0  0  0  0  0  0  0  0  0  0  0
  -15.0341  -28.9666   12.9262 H   0  0  0  0  0  0  0  0  0  0  0  0
  -12.8286  -29.3585   10.9036 H   0  0  0  0  0  0  0  0  0  0  0  0
  -14.4454  -28.7608   10.6290 H   0  0  0  0  0  0  0  0  0  0  0  0
  -12.1421  -27.2781   10.7823 H   0  0  0  0  0  0  0  0  0  0  0  0
  -13.7390  -26.6048   10.8411 H   0  0  0  0  0  0  0  0  0  0  0  0
  -14.9304  -26.0543   12.5408 H   0  0  0  0  0  0  0  0  0  0  0  0
  -14.6893  -27.2100   13.7133 H   0  0  0  0  0  0  0  0  0  0  0  0
  -17.2668  -27.7386   15.4299 H   0  0  0  0  0  0  0  0  0  0  0  0
  -17.1775  -29.6730   16.9754 H   0  0  0  0  0  0  0  0  0  0  0  0
  -15.3552  -29.8340   18.6538 H   0  0  0  0  0  0  0  0  0  0  0  0
  -13.6368  -28.0410   18.7917 H   0  0  0  0  0  0  0  0  0  0  0  0
  -13.7410  -26.1005   17.2697 H   0  0  0  0  0  0  0  0  0  0  0  0
  -14.9279  -24.1085   12.9271 H   0  0  0  0  0  0  0  0  0  0  0  0
  -13.9960  -23.4482   14.1577 H   0  0  0  0  0  0  0  0  0  0  0  0
  -12.1971  -23.3750   12.8941 H   0  0  0  0  0  0  0  0  0  0  0  0
  -13.0684  -24.1961   11.6200 H   0  0  0  0  0  0  0  0  0  0  0  0
  -11.4367  -25.3851   13.8513 H   0  0  0  0  0  0  0  0  0  0  0  0
  -10.1004  -24.4981   12.0799 H   0  0  0  0  0  0  0  0  0  0  0  0
  -11.0390  -25.3229   10.8302 H   0  0  0  0  0  0  0  0  0  0  0  0
   -9.0434  -26.3566   11.4766 H   0  0  0  0  0  0  0  0  0  0  0  0
  -11.3944  -28.4004   12.7746 H   0  0  0  0  0  0  0  0  0  0  0  0
  -12.1533  -26.3463   15.7743 H   0  0  0  0  0  0  0  0  0  0  0  0
  1  2  1  0
  2  3  2  0
  2  4  2  0
  2  5  1  0
  5  6  1  0
  6  7  1  0
  7  8  1  0
  8  9  1  0
  9 10  1  0
 10 11  1  0
 11 12  1  0
 12 13  2  0
 12 14  1  0
 14 15  2  0
 15 16  1  0
 16 17  2  0
 17 18  1  0
 18 19  2  0
 11 20  1  0
 20 21  1  0
 21 22  1  0
 22 23  1  0
 23 24  1  0
  9 25  1  0
 25 26  1  0
 26 27  1  0
 27 28  1  0
 27 29  1  0
 25  5  1  0
 22  9  1  0
 19 14  1  0
  1 30  1  0
  1 31  1  0
  5 32  1  0
  6 33  1  0
  6 34  1  0
  7 35  1  0
  7 36  1  0
  8 37  1  0
  8 38  1  0
 10 39  1  0
 10 40  1  0
 15 41  1  0
 16 42  1  0
 17 43  1  0
 18 44  1  0
 19 45  1  0
 20 46  1  0
 20 47  1  0
 21 48  1  0
 21 49  1  0
 22 50  1  0
 23 51  1  0
 23 52  1  0
 24 53  1  0
 25 54  1  0
 27 55  1  0
M  END
>  <Energy>  (368) 
57.834577135936406

>  <compound_id>  (368) 
662

>  <target_id>  (368) 
1

>  <reference_id>  (368) 
77

>  <inspiration_ids>  (368) 
[112, 77]

>  <energy_score>  (368) 
1.3193571932808084

>  <distance_score>  (368) 
3.038801266380661

>  <path>  (368) 
/opt/xchem-fragalysis-2/maxwin/BulkDock/SCRATCH/505734/C662-P77/C662-P77.minimised.mol

>  <scratch_subdir>  (368) 
/opt/xchem-fragalysis-2/maxwin/BulkDock/SCRATCH/505734/C662-P77

>  <fragmenstein_runtime>  (368) 
4.657292604446411

>  <fragmenstein_outcome>  (368) 
too moved

>  <fragmenstein_mode>  (368) 
expansion

>  <fragmenstein_error>  (368) 


$$$$
C3357-P113
     RDKit          3D

 36 37  0  0  0  0  0  0  0  0999 V2000
   16.1710   -2.1172   16.7204 O   0  0  0  0  0  0  0  0  0  0  0  0
   15.5035   -1.8270   15.7456 C   0  0  0  0  0  0  0  0  0  0  0  0
   16.0507   -1.6386   14.5352 O   0  0  0  0  0  0  0  0  0  0  0  0
   14.0362   -1.7407   15.6984 C   0  0  0  0  0  0  0  0  0  0  0  0
   13.3603   -2.7613   16.3869 C   0  0  0  0  0  0  0  0  0  0  0  0
   12.0084   -2.9902   16.1447 C   0  0  0  0  0  0  0  0  0  0  0  0
   11.3045   -2.1576   15.2814 C   0  0  0  0  0  0  0  0  0  0  0  0
   11.9446   -1.0664   14.6972 C   0  0  0  0  0  0  0  0  0  0  0  0
   13.3171   -0.8404   14.9078 C   0  0  0  0  0  0  0  0  0  0  0  0
   13.8552    0.3635   14.2139 C   0  0  0  0  0  0  0  0  0  0  0  0
   13.9358    0.3267   13.0403 O   0  0  0  0  0  0  0  0  0  0  0  0
   14.1226    1.5015   15.1809 N   0  0  0  0  0  0  0  0  0  0  0  0
   14.4710    2.9500   14.9238 C   0  0  0  0  0  0  0  0  0  0  0  0
   14.5381    3.9006   16.1343 C   0  0  0  0  0  0  0  0  0  0  0  0
   15.8540    3.6316   16.8419 C   0  0  0  0  0  0  0  0  0  0  0  0
   16.0643    4.3986   18.1392 C   0  0  0  0  0  0  0  0  0  0  0  0
   14.9954    4.2378   19.0507 O   0  0  0  0  0  0  0  0  0  0  0  0
   15.8882    2.1277   17.0083 C   0  0  0  0  0  0  0  0  0  0  0  0
   15.5763    1.5040   15.6422 C   0  0  0  0  0  0  0  0  0  0  0  0
   16.9946   -1.8762   14.6381 H   0  0  0  0  0  0  0  0  0  0  0  0
   13.9107   -3.4592   17.0165 H   0  0  0  0  0  0  0  0  0  0  0  0
   11.5298   -3.8628   16.5813 H   0  0  0  0  0  0  0  0  0  0  0  0
   10.2644   -2.3594   15.0339 H   0  0  0  0  0  0  0  0  0  0  0  0
   11.3801   -0.4189   14.0265 H   0  0  0  0  0  0  0  0  0  0  0  0
   13.5671    3.2766   14.3840 H   0  0  0  0  0  0  0  0  0  0  0  0
   15.2316    3.1274   14.1426 H   0  0  0  0  0  0  0  0  0  0  0  0
   14.4973    4.9421   15.7962 H   0  0  0  0  0  0  0  0  0  0  0  0
   13.6783    3.7287   16.7930 H   0  0  0  0  0  0  0  0  0  0  0  0
   16.6753    3.9174   16.1689 H   0  0  0  0  0  0  0  0  0  0  0  0
   16.9926    4.0906   18.6321 H   0  0  0  0  0  0  0  0  0  0  0  0
   16.1480    5.4691   17.9238 H   0  0  0  0  0  0  0  0  0  0  0  0
   14.9617    3.3080   19.3319 H   0  0  0  0  0  0  0  0  0  0  0  0
   15.1588    1.7796   17.7494 H   0  0  0  0  0  0  0  0  0  0  0  0
   16.8810    1.8094   17.3471 H   0  0  0  0  0  0  0  0  0  0  0  0
   16.3209    1.7075   14.8511 H   0  0  0  0  0  0  0  0  0  0  0  0
   15.7875    0.4581   15.8338 H   0  0  0  0  0  0  0  0  0  0  0  0
  1  2  2  0
  2  3  1  0
  2  4  1  0
  4  5  2  0
  5  6  1  0
  6  7  2  0
  7  8  1  0
  8  9  2  0
  9 10  1  0
 10 11  2  0
 10 12  1  0
 12 13  1  0
 13 14  1  0
 14 15  1  0
 15 16  1  0
 16 17  1  0
 15 18  1  0
 18 19  1  0
  9  4  1  0
 19 12  1  0
  3 20  1  0
  5 21  1  0
  6 22  1  0
  7 23  1  0
  8 24  1  0
 13 25  1  0
 13 26  1  0
 14 27  1  0
 14 28  1  0
 15 29  1  0
 16 30  1  0
 16 31  1  0
 17 32  1  0
 18 33  1  0
 18 34  1  0
 19 35  1  0
 19 36  1  0
M  END
>  <Energy>  (369) 
96.281154179571558

>  <compound_id>  (369) 
3357

>  <target_id>  (369) 
1

>  <reference_id>  (369) 
113

>  <inspiration_ids>  (369) 
[113, 4]

>  <energy_score>  (369) 
53.12120863875768

>  <distance_score>  (369) 
2.0357961018551323

>  <path>  (369) 
/opt/xchem-fragalysis-2/maxwin/BulkDock/SCRATCH/505734/C3357-P113/C3357-P113.minimised.mol

>  <scratch_subdir>  (369) 
/opt/xchem-fragalysis-2/maxwin/BulkDock/SCRATCH/505734/C3357-P113

>  <fragmenstein_runtime>  (369) 
2.1498963832855225

>  <fragmenstein_outcome>  (369) 
too moved

>  <fragmenstein_mode>  (369) 
expansion

>  <fragmenstein_error>  (369) 


$$$$
C3357-P4
     RDKit          3D

 36 37  0  0  0  0  0  0  0  0999 V2000
   16.5104   -2.2935   16.7085 O   0  0  0  0  0  0  0  0  0  0  0  0
   15.8656   -2.0836   15.6986 C   0  0  0  0  0  0  0  0  0  0  0  0
   16.4371   -1.9490   14.4925 O   0  0  0  0  0  0  0  0  0  0  0  0
   14.4003   -2.0473   15.6055 C   0  0  0  0  0  0  0  0  0  0  0  0
   13.7282   -3.0296   16.3555 C   0  0  0  0  0  0  0  0  0  0  0  0
   12.3813   -3.2970   16.1224 C   0  0  0  0  0  0  0  0  0  0  0  0
   11.6869   -2.5609   15.1712 C   0  0  0  0  0  0  0  0  0  0  0  0
   12.3258   -1.5163   14.5042 C   0  0  0  0  0  0  0  0  0  0  0  0
   13.6832   -1.2239   14.7365 C   0  0  0  0  0  0  0  0  0  0  0  0
   14.1451    0.0433   14.0873 C   0  0  0  0  0  0  0  0  0  0  0  0
   14.2268    0.0691   12.9135 O   0  0  0  0  0  0  0  0  0  0  0  0
   14.3418    1.1485   15.1103 N   0  0  0  0  0  0  0  0  0  0  0  0
   14.5985    2.6273   14.9249 C   0  0  0  0  0  0  0  0  0  0  0  0
   14.5340    3.4876   16.2036 C   0  0  0  0  0  0  0  0  0  0  0  0
   15.7752    3.2112   17.0391 C   0  0  0  0  0  0  0  0  0  0  0  0
   15.6932    3.7117   18.4732 C   0  0  0  0  0  0  0  0  0  0  0  0
   15.5054    5.1139   18.4897 O   0  0  0  0  0  0  0  0  0  0  0  0
   15.9954    1.7141   17.0049 C   0  0  0  0  0  0  0  0  0  0  0  0
   15.7918    1.2199   15.5740 C   0  0  0  0  0  0  0  0  0  0  0  0
   17.3878   -2.1411   14.6246 H   0  0  0  0  0  0  0  0  0  0  0  0
   14.2785   -3.6583   17.0526 H   0  0  0  0  0  0  0  0  0  0  0  0
   11.8984   -4.1232   16.6395 H   0  0  0  0  0  0  0  0  0  0  0  0
   10.6481   -2.7862   14.9423 H   0  0  0  0  0  0  0  0  0  0  0  0
   11.7557   -0.9213   13.7924 H   0  0  0  0  0  0  0  0  0  0  0  0
   13.6943    2.9186   14.3655 H   0  0  0  0  0  0  0  0  0  0  0  0
   15.3706    2.9149   14.1901 H   0  0  0  0  0  0  0  0  0  0  0  0
   14.4822    4.5492   15.9367 H   0  0  0  0  0  0  0  0  0  0  0  0
   13.6235    3.2479   16.7646 H   0  0  0  0  0  0  0  0  0  0  0  0
   16.6209    3.7102   16.5455 H   0  0  0  0  0  0  0  0  0  0  0  0
   14.8572    3.2466   19.0069 H   0  0  0  0  0  0  0  0  0  0  0  0
   16.6180    3.4807   19.0127 H   0  0  0  0  0  0  0  0  0  0  0  0
   15.5151    5.3950   19.4212 H   0  0  0  0  0  0  0  0  0  0  0  0
   15.2978    1.1956   17.6752 H   0  0  0  0  0  0  0  0  0  0  0  0
   17.0102    1.4759   17.3447 H   0  0  0  0  0  0  0  0  0  0  0  0
   16.1105    0.1875   15.6350 H   0  0  0  0  0  0  0  0  0  0  0  0
   16.5306    1.5849   14.8374 H   0  0  0  0  0  0  0  0  0  0  0  0
  1  2  2  0
  2  3  1  0
  2  4  1  0
  4  5  2  0
  5  6  1  0
  6  7  2  0
  7  8  1  0
  8  9  2  0
  9 10  1  0
 10 11  2  0
 10 12  1  0
 12 13  1  0
 13 14  1  0
 14 15  1  0
 15 16  1  0
 16 17  1  0
 15 18  1  0
 18 19  1  0
  9  4  1  0
 19 12  1  0
  3 20  1  0
  5 21  1  0
  6 22  1  0
  7 23  1  0
  8 24  1  0
 13 25  1  0
 13 26  1  0
 14 27  1  0
 14 28  1  0
 15 29  1  0
 16 30  1  0
 16 31  1  0
 17 32  1  0
 18 33  1  0
 18 34  1  0
 19 35  1  0
 19 36  1  0
M  END
>  <Energy>  (370) 
94.848881422031184

>  <compound_id>  (370) 
3357

>  <target_id>  (370) 
1

>  <reference_id>  (370) 
4

>  <inspiration_ids>  (370) 
[113, 4]

>  <energy_score>  (370) 
51.68893588122165

>  <distance_score>  (370) 
2.2584061683826904

>  <path>  (370) 
/opt/xchem-fragalysis-2/maxwin/BulkDock/SCRATCH/505734/C3357-P4/C3357-P4.minimised.mol

>  <scratch_subdir>  (370) 
/opt/xchem-fragalysis-2/maxwin/BulkDock/SCRATCH/505734/C3357-P4

>  <fragmenstein_runtime>  (370) 
2.1849656105041504

>  <fragmenstein_outcome>  (370) 
too moved

>  <fragmenstein_mode>  (370) 
expansion

>  <fragmenstein_error>  (370) 


$$$$
C3360-P113
     RDKit          3D

 33 34  0  0  0  0  0  0  0  0999 V2000
   11.0762    1.4239   14.4448 O   0  0  0  0  0  0  0  0  0  0  0  0
   11.8800    1.1375   15.2526 C   0  0  0  0  0  0  0  0  0  0  0  0
   12.0489   -0.3204   15.6097 C   0  0  0  0  0  0  0  0  0  0  0  0
   11.1866   -1.2460   15.0075 C   0  0  0  0  0  0  0  0  0  0  0  0
   11.2857   -2.6061   15.2972 C   0  0  0  0  0  0  0  0  0  0  0  0
   12.2480   -3.0577   16.1960 C   0  0  0  0  0  0  0  0  0  0  0  0
   13.1380   -2.1535   16.7665 C   0  0  0  0  0  0  0  0  0  0  0  0
   14.6715   -2.8573   17.9809 I   0  0  0  0  0  0  0  0  0  0  0  0
   13.0280   -0.7870   16.5003 C   0  0  0  0  0  0  0  0  0  0  0  0
   12.7801    2.0119   16.0837 N   0  0  0  0  0  0  0  0  0  0  0  0
   12.8513    3.5122   16.2058 C   0  0  0  0  0  0  0  0  0  0  0  0
   13.7583    4.0815   17.2975 C   0  0  0  0  0  0  0  0  0  0  0  0
   15.2009    3.9389   16.8449 C   0  0  0  0  0  0  0  0  0  0  0  0
   16.2220    4.2726   17.9277 C   0  0  0  0  0  0  0  0  0  0  0  0
   16.0011    3.5409   19.1192 O   0  0  0  0  0  0  0  0  0  0  0  0
   15.3155    2.5237   16.3036 C   0  0  0  0  0  0  0  0  0  0  0  0
   14.1116    2.2672   15.3756 C   0  0  0  0  0  0  0  0  0  0  0  0
   10.4294   -0.9121   14.2990 H   0  0  0  0  0  0  0  0  0  0  0  0
   10.6111   -3.3099   14.8144 H   0  0  0  0  0  0  0  0  0  0  0  0
   12.3048   -4.1179   16.4285 H   0  0  0  0  0  0  0  0  0  0  0  0
   13.7133   -0.0957   16.9797 H   0  0  0  0  0  0  0  0  0  0  0  0
   12.8269    4.0833   15.2606 H   0  0  0  0  0  0  0  0  0  0  0  0
   11.8337    3.7269   16.5721 H   0  0  0  0  0  0  0  0  0  0  0  0
   13.5692    3.5394   18.2315 H   0  0  0  0  0  0  0  0  0  0  0  0
   13.5210    5.1365   17.4750 H   0  0  0  0  0  0  0  0  0  0  0  0
   15.3734    4.6314   16.0089 H   0  0  0  0  0  0  0  0  0  0  0  0
   16.1870    5.3397   18.1727 H   0  0  0  0  0  0  0  0  0  0  0  0
   17.2346    4.0492   17.5766 H   0  0  0  0  0  0  0  0  0  0  0  0
   15.2193    3.9089   19.5653 H   0  0  0  0  0  0  0  0  0  0  0  0
   16.2498    2.4105   15.7421 H   0  0  0  0  0  0  0  0  0  0  0  0
   15.3276    1.7867   17.1155 H   0  0  0  0  0  0  0  0  0  0  0  0
   14.0727    2.8914   14.4649 H   0  0  0  0  0  0  0  0  0  0  0  0
   14.3449    1.2902   14.9225 H   0  0  0  0  0  0  0  0  0  0  0  0
  1  2  2  0
  2  3  1  0
  3  4  2  0
  4  5  1  0
  5  6  2  0
  6  7  1  0
  7  8  1  0
  7  9  2  0
  2 10  1  0
 10 11  1  0
 11 12  1  0
 12 13  1  0
 13 14  1  0
 14 15  1  0
 13 16  1  0
 16 17  1  0
  9  3  1  0
 17 10  1  0
  4 18  1  0
  5 19  1  0
  6 20  1  0
  9 21  1  0
 11 22  1  0
 11 23  1  0
 12 24  1  0
 12 25  1  0
 13 26  1  0
 14 27  1  0
 14 28  1  0
 15 29  1  0
 16 30  1  0
 16 31  1  0
 17 32  1  0
 17 33  1  0
M  END
>  <Energy>  (371) 
99.904527490928047

>  <compound_id>  (371) 
3360

>  <target_id>  (371) 
1

>  <reference_id>  (371) 
113

>  <inspiration_ids>  (371) 
[113, 10]

>  <energy_score>  (371) 
49.35891460580123

>  <distance_score>  (371) 
0.8802931976341051

>  <path>  (371) 
/opt/xchem-fragalysis-2/maxwin/BulkDock/SCRATCH/505734/C3360-P113/C3360-P113.minimised.mol

>  <scratch_subdir>  (371) 
/opt/xchem-fragalysis-2/maxwin/BulkDock/SCRATCH/505734/C3360-P113

>  <fragmenstein_runtime>  (371) 
1.2821629047393799

>  <fragmenstein_outcome>  (371) 
too contorted

>  <fragmenstein_mode>  (371) 
expansion

>  <fragmenstein_error>  (371) 


$$$$
C3360-P10
     RDKit          3D

 33 34  0  0  0  0  0  0  0  0999 V2000
   11.4521    1.3263   14.2727 O   0  0  0  0  0  0  0  0  0  0  0  0
   12.2138    1.0632   15.1274 C   0  0  0  0  0  0  0  0  0  0  0  0
   12.3641   -0.3880   15.5210 C   0  0  0  0  0  0  0  0  0  0  0  0
   11.4368   -1.2967   14.9987 C   0  0  0  0  0  0  0  0  0  0  0  0
   11.5149   -2.6580   15.2911 C   0  0  0  0  0  0  0  0  0  0  0  0
   12.5237   -3.1317   16.1221 C   0  0  0  0  0  0  0  0  0  0  0  0
   13.4567   -2.2396   16.6429 C   0  0  0  0  0  0  0  0  0  0  0  0
   15.0075   -2.9621   17.8216 I   0  0  0  0  0  0  0  0  0  0  0  0
   13.3722   -0.8710   16.3655 C   0  0  0  0  0  0  0  0  0  0  0  0
   13.0554    1.9621   15.9919 N   0  0  0  0  0  0  0  0  0  0  0  0
   13.1006    3.4647   16.0937 C   0  0  0  0  0  0  0  0  0  0  0  0
   13.9352    4.0665   17.2235 C   0  0  0  0  0  0  0  0  0  0  0  0
   15.4015    3.9350   16.8529 C   0  0  0  0  0  0  0  0  0  0  0  0
   16.3557    4.2935   17.9859 C   0  0  0  0  0  0  0  0  0  0  0  0
   16.0276    3.6155   19.1853 O   0  0  0  0  0  0  0  0  0  0  0  0
   15.5644    2.5125   16.3436 C   0  0  0  0  0  0  0  0  0  0  0  0
   14.4205    2.2248   15.3535 C   0  0  0  0  0  0  0  0  0  0  0  0
   10.6388   -0.9397   14.3524 H   0  0  0  0  0  0  0  0  0  0  0  0
   10.7872   -3.3432   14.8635 H   0  0  0  0  0  0  0  0  0  0  0  0
   12.5707   -4.1933   16.3512 H   0  0  0  0  0  0  0  0  0  0  0  0
   14.1007   -0.1949   16.7989 H   0  0  0  0  0  0  0  0  0  0  0  0
   13.1197    4.0209   15.1395 H   0  0  0  0  0  0  0  0  0  0  0  0
   12.0612    3.6703   16.3994 H   0  0  0  0  0  0  0  0  0  0  0  0
   13.7017    3.5402   18.1568 H   0  0  0  0  0  0  0  0  0  0  0  0
   13.6754    5.1214   17.3674 H   0  0  0  0  0  0  0  0  0  0  0  0
   15.6148    4.6152   16.0163 H   0  0  0  0  0  0  0  0  0  0  0  0
   16.3302    5.3707   18.1844 H   0  0  0  0  0  0  0  0  0  0  0  0
   17.3846    4.0328   17.7173 H   0  0  0  0  0  0  0  0  0  0  0  0
   15.3198    4.1119   19.6298 H   0  0  0  0  0  0  0  0  0  0  0  0
   16.5311    2.4027   15.8391 H   0  0  0  0  0  0  0  0  0  0  0  0
   15.5391    1.7898   17.1681 H   0  0  0  0  0  0  0  0  0  0  0  0
   14.4236    2.8369   14.4336 H   0  0  0  0  0  0  0  0  0  0  0  0
   14.6920    1.2465   14.9260 H   0  0  0  0  0  0  0  0  0  0  0  0
  1  2  2  0
  2  3  1  0
  3  4  2  0
  4  5  1  0
  5  6  2  0
  6  7  1  0
  7  8  1  0
  7  9  2  0
  2 10  1  0
 10 11  1  0
 11 12  1  0
 12 13  1  0
 13 14  1  0
 14 15  1  0
 13 16  1  0
 16 17  1  0
  9  3  1  0
 17 10  1  0
  4 18  1  0
  5 19  1  0
  6 20  1  0
  9 21  1  0
 11 22  1  0
 11 23  1  0
 12 24  1  0
 12 25  1  0
 13 26  1  0
 14 27  1  0
 14 28  1  0
 15 29  1  0
 16 30  1  0
 16 31  1  0
 17 32  1  0
 17 33  1  0
M  END
>  <Energy>  (372) 
100.57310404555993

>  <compound_id>  (372) 
3360

>  <target_id>  (372) 
1

>  <reference_id>  (372) 
10

>  <inspiration_ids>  (372) 
[113, 10]

>  <energy_score>  (372) 
50.02749116043492

>  <distance_score>  (372) 
0.8652483202369785

>  <path>  (372) 
/opt/xchem-fragalysis-2/maxwin/BulkDock/SCRATCH/505734/C3360-P10/C3360-P10.minimised.mol

>  <scratch_subdir>  (372) 
/opt/xchem-fragalysis-2/maxwin/BulkDock/SCRATCH/505734/C3360-P10

>  <fragmenstein_runtime>  (372) 
1.2215125560760498

>  <fragmenstein_outcome>  (372) 
too contorted

>  <fragmenstein_mode>  (372) 
expansion

>  <fragmenstein_error>  (372) 


$$$$
C3361-P113
     RDKit          3D

 67 69  0  0  0  0  0  0  0  0999 V2000
   18.8868   -3.0377   13.0847 C   0  0  0  0  0  0  0  0  0  0  0  0
   17.9124   -2.0126   13.6658 C   0  0  0  0  0  0  0  0  0  0  0  0
   17.1697   -2.5648   14.8798 C   0  0  0  0  0  0  0  0  0  0  0  0
   15.8605   -1.8505   15.1299 C   0  0  0  0  0  0  0  0  0  0  0  0
   15.8433   -0.4329   14.5863 C   0  0  0  0  0  0  0  0  0  0  0  0
   16.2038   -0.2602   13.1863 N   0  0  0  0  0  0  0  0  0  0  0  0
   15.5384    0.9809   12.2235 S   0  0  0  0  0  0  0  0  0  0  0  0
   13.9499    0.4199   11.6660 C   0  0  0  0  0  0  0  0  0  0  0  0
   16.4150    1.0857   11.0778 O   0  0  0  0  0  0  0  0  0  0  0  0
   15.2639    2.1124   13.2060 N   0  0  0  0  0  0  0  0  0  0  0  0
   16.2802    3.0176   13.6511 C   0  0  0  0  0  0  0  0  0  0  0  0
   16.1674    3.1388   15.0991 N   0  0  0  0  0  0  0  0  0  0  0  0
   14.8822    3.6850   15.5812 C   0  0  0  0  0  0  0  0  0  0  0  0
   13.5800    2.8242   15.3313 C   0  0  0  0  0  0  0  0  0  0  0  0
   12.5257    2.4306   16.3455 N   0  0  0  0  0  0  0  0  0  0  0  0
   11.4829    1.5224   15.7273 C   0  0  0  0  0  0  0  0  0  0  0  0
   10.4683    1.7830   15.1893 O   0  0  0  0  0  0  0  0  0  0  0  0
   11.8395    0.0579   15.8384 C   0  0  0  0  0  0  0  0  0  0  0  0
   11.1210   -0.8660   15.0616 C   0  0  0  0  0  0  0  0  0  0  0  0
   11.3320   -2.2405   15.1996 C   0  0  0  0  0  0  0  0  0  0  0  0
   12.2504   -2.7099   16.1318 C   0  0  0  0  0  0  0  0  0  0  0  0
   12.9912   -1.8055   16.8883 C   0  0  0  0  0  0  0  0  0  0  0  0
   12.7996   -0.4262   16.7347 C   0  0  0  0  0  0  0  0  0  0  0  0
   12.5301    3.9106   16.5462 C   0  0  0  0  0  0  0  0  0  0  0  0
   13.5745    4.4161   17.5401 C   0  0  0  0  0  0  0  0  0  0  0  0
   14.9903    4.1520   17.0335 C   0  0  0  0  0  0  0  0  0  0  0  0
   15.7529    3.2234   17.9774 C   0  0  0  0  0  0  0  0  0  0  0  0
   15.8590    3.8302   19.2632 O   0  0  0  0  0  0  0  0  0  0  0  0
   17.0285   -1.3169   12.5945 C   0  0  0  0  0  0  0  0  0  0  0  0
   16.2032   -2.2005   11.6303 C   0  0  0  0  0  0  0  0  0  0  0  0
   14.9540   -2.6121   12.1569 O   0  0  0  0  0  0  0  0  0  0  0  0
   19.4729   -2.5981   12.2708 H   0  0  0  0  0  0  0  0  0  0  0  0
   18.3769   -3.9194   12.6938 H   0  0  0  0  0  0  0  0  0  0  0  0
   19.5898   -3.3764   13.8537 H   0  0  0  0  0  0  0  0  0  0  0  0
   18.5573   -1.2107   14.0622 H   0  0  0  0  0  0  0  0  0  0  0  0
   16.9908   -3.6398   14.7995 H   0  0  0  0  0  0  0  0  0  0  0  0
   17.8165   -2.4497   15.7601 H   0  0  0  0  0  0  0  0  0  0  0  0
   15.6748   -1.8357   16.2084 H   0  0  0  0  0  0  0  0  0  0  0  0
   15.0405   -2.4168   14.6825 H   0  0  0  0  0  0  0  0  0  0  0  0
   14.8347   -0.0535   14.7526 H   0  0  0  0  0  0  0  0  0  0  0  0
   16.5255    0.1676   15.1965 H   0  0  0  0  0  0  0  0  0  0  0  0
   13.4713    1.2352   11.1188 H   0  0  0  0  0  0  0  0  0  0  0  0
   14.0877   -0.4286   11.0007 H   0  0  0  0  0  0  0  0  0  0  0  0
   13.3422    0.1372   12.5278 H   0  0  0  0  0  0  0  0  0  0  0  0
   17.2869    2.6555   13.4152 H   0  0  0  0  0  0  0  0  0  0  0  0
   16.1683    3.9928   13.1663 H   0  0  0  0  0  0  0  0  0  0  0  0
   16.2415    2.1841   15.4353 H   0  0  0  0  0  0  0  0  0  0  0  0
   14.7204    4.6092   15.0037 H   0  0  0  0  0  0  0  0  0  0  0  0
   13.0961    3.1049   14.3773 H   0  0  0  0  0  0  0  0  0  0  0  0
   13.9580    1.8219   15.1198 H   0  0  0  0  0  0  0  0  0  0  0  0
   10.3746   -0.5218   14.3453 H   0  0  0  0  0  0  0  0  0  0  0  0
   10.7579   -2.9362   14.5909 H   0  0  0  0  0  0  0  0  0  0  0  0
   12.3825   -3.7784   16.2789 H   0  0  0  0  0  0  0  0  0  0  0  0
   13.7059   -2.1747   17.6206 H   0  0  0  0  0  0  0  0  0  0  0  0
   13.3695    0.2586   17.3578 H   0  0  0  0  0  0  0  0  0  0  0  0
   12.3629    4.5505   15.6585 H   0  0  0  0  0  0  0  0  0  0  0  0
   11.5666    4.0642   17.0577 H   0  0  0  0  0  0  0  0  0  0  0  0
   13.4293    5.4943   17.6812 H   0  0  0  0  0  0  0  0  0  0  0  0
   13.4015    3.9521   18.5185 H   0  0  0  0  0  0  0  0  0  0  0  0
   15.5291    5.1109   17.0476 H   0  0  0  0  0  0  0  0  0  0  0  0
   16.7707    3.0221   17.6303 H   0  0  0  0  0  0  0  0  0  0  0  0
   15.2378    2.2643   18.0939 H   0  0  0  0  0  0  0  0  0  0  0  0
   16.3986    4.6330   19.1628 H   0  0  0  0  0  0  0  0  0  0  0  0
   17.7692   -0.8241   11.9481 H   0  0  0  0  0  0  0  0  0  0  0  0
   16.7647   -3.0829   11.3099 H   0  0  0  0  0  0  0  0  0  0  0  0
   15.9912   -1.6420   10.7125 H   0  0  0  0  0  0  0  0  0  0  0  0
   15.1340   -3.4144   12.6856 H   0  0  0  0  0  0  0  0  0  0  0  0
  1  2  1  0
  2  3  1  0
  3  4  1  0
  4  5  1  0
  5  6  1  0
  6  7  1  0
  7  8  1  0
  7  9  2  0
  7 10  2  0
 10 11  1  0
 11 12  1  0
 12 13  1  0
 13 14  1  0
 14 15  1  0
 15 16  1  0
 16 17  2  0
 16 18  1  0
 18 19  2  0
 19 20  1  0
 20 21  2  0
 21 22  1  0
 22 23  2  0
 15 24  1  0
 24 25  1  0
 25 26  1  0
 26 27  1  0
 27 28  1  0
  6 29  1  0
 29 30  1  0
 30 31  1  0
 29  2  1  0
 26 13  1  0
 23 18  1  0
  1 32  1  0
  1 33  1  0
  1 34  1  0
  2 35  1  0
  3 36  1  0
  3 37  1  0
  4 38  1  0
  4 39  1  0
  5 40  1  0
  5 41  1  0
  8 42  1  0
  8 43  1  0
  8 44  1  0
 11 45  1  0
 11 46  1  0
 12 47  1  0
 13 48  1  0
 14 49  1  0
 14 50  1  0
 19 51  1  0
 20 52  1  0
 21 53  1  0
 22 54  1  0
 23 55  1  0
 24 56  1  0
 24 57  1  0
 25 58  1  0
 25 59  1  0
 26 60  1  0
 27 61  1  0
 27 62  1  0
 28 63  1  0
 29 64  1  0
 30 65  1  0
 30 66  1  0
 31 67  1  0
M  END
>  <Energy>  (373) 
13.877204769920642

>  <compound_id>  (373) 
3361

>  <target_id>  (373) 
1

>  <reference_id>  (373) 
113

>  <inspiration_ids>  (373) 
[113, 12]

>  <energy_score>  (373) 
1.7606384618172228

>  <distance_score>  (373) 
1.4007329057587008

>  <path>  (373) 
/opt/xchem-fragalysis-2/maxwin/BulkDock/SCRATCH/505734/C3361-P113/C3361-P113.minimised.mol

>  <scratch_subdir>  (373) 
/opt/xchem-fragalysis-2/maxwin/BulkDock/SCRATCH/505734/C3361-P113

>  <fragmenstein_runtime>  (373) 
4.608741044998169

>  <fragmenstein_outcome>  (373) 
too moved

>  <fragmenstein_mode>  (373) 
expansion

>  <fragmenstein_error>  (373) 


$$$$
C3361-P12
     RDKit          3D

 67 69  0  0  0  0  0  0  0  0999 V2000
   18.8929   -3.2686   12.9610 C   0  0  0  0  0  0  0  0  0  0  0  0
   17.9621   -2.2231   13.5764 C   0  0  0  0  0  0  0  0  0  0  0  0
   17.0866   -2.8294   14.6669 C   0  0  0  0  0  0  0  0  0  0  0  0
   15.9152   -1.9375   15.0174 C   0  0  0  0  0  0  0  0  0  0  0  0
   16.0909   -0.4996   14.5607 C   0  0  0  0  0  0  0  0  0  0  0  0
   16.3841   -0.3252   13.1468 N   0  0  0  0  0  0  0  0  0  0  0  0
   15.8211    1.0046   12.2410 S   0  0  0  0  0  0  0  0  0  0  0  0
   14.2321    0.5562   11.5908 C   0  0  0  0  0  0  0  0  0  0  0  0
   16.7486    1.1341   11.1387 O   0  0  0  0  0  0  0  0  0  0  0  0
   15.5528    2.0893   13.2745 N   0  0  0  0  0  0  0  0  0  0  0  0
   16.5835    2.9196   13.8165 C   0  0  0  0  0  0  0  0  0  0  0  0
   16.3565    3.0152   15.2528 N   0  0  0  0  0  0  0  0  0  0  0  0
   15.0630    3.6208   15.6342 C   0  0  0  0  0  0  0  0  0  0  0  0
   13.7510    2.7988   15.3143 C   0  0  0  0  0  0  0  0  0  0  0  0
   12.6707    2.4076   16.2983 N   0  0  0  0  0  0  0  0  0  0  0  0
   11.6536    1.4869   15.6576 C   0  0  0  0  0  0  0  0  0  0  0  0
   10.6540    1.7356   15.0869 O   0  0  0  0  0  0  0  0  0  0  0  0
   12.0144    0.0231   15.7956 C   0  0  0  0  0  0  0  0  0  0  0  0
   11.2793   -0.9120   15.0519 C   0  0  0  0  0  0  0  0  0  0  0  0
   11.4938   -2.2863   15.1961 C   0  0  0  0  0  0  0  0  0  0  0  0
   12.4348   -2.7494   16.1066 C   0  0  0  0  0  0  0  0  0  0  0  0
   13.1785   -1.8333   16.8474 C   0  0  0  0  0  0  0  0  0  0  0  0
   12.9861   -0.4531   16.6822 C   0  0  0  0  0  0  0  0  0  0  0  0
   12.6593    3.8906   16.4855 C   0  0  0  0  0  0  0  0  0  0  0  0
   13.6611    4.4136   17.5106 C   0  0  0  0  0  0  0  0  0  0  0  0
   15.0958    4.1195   17.0800 C   0  0  0  0  0  0  0  0  0  0  0  0
   15.7947    3.2031   18.0827 C   0  0  0  0  0  0  0  0  0  0  0  0
   15.8437    3.8404   19.3574 O   0  0  0  0  0  0  0  0  0  0  0  0
   17.1916   -1.3803   12.5233 C   0  0  0  0  0  0  0  0  0  0  0  0
   16.3635   -2.1468   11.4680 C   0  0  0  0  0  0  0  0  0  0  0  0
   15.1145   -2.6016   11.9539 O   0  0  0  0  0  0  0  0  0  0  0  0
   19.5551   -2.8102   12.2191 H   0  0  0  0  0  0  0  0  0  0  0  0
   18.3442   -4.0751   12.4718 H   0  0  0  0  0  0  0  0  0  0  0  0
   19.5238   -3.7213   13.7338 H   0  0  0  0  0  0  0  0  0  0  0  0
   18.6328   -1.5132   14.0870 H   0  0  0  0  0  0  0  0  0  0  0  0
   16.7150   -3.8177   14.3829 H   0  0  0  0  0  0  0  0  0  0  0  0
   17.7018   -2.9947   15.5610 H   0  0  0  0  0  0  0  0  0  0  0  0
   15.7763   -1.9633   16.1020 H   0  0  0  0  0  0  0  0  0  0  0  0
   15.0048   -2.3454   14.5675 H   0  0  0  0  0  0  0  0  0  0  0  0
   15.1642    0.0128   14.8174 H   0  0  0  0  0  0  0  0  0  0  0  0
   16.8894   -0.0338   15.1496 H   0  0  0  0  0  0  0  0  0  0  0  0
   13.8164    1.4217   11.0698 H   0  0  0  0  0  0  0  0  0  0  0  0
   14.3549   -0.2623   10.8873 H   0  0  0  0  0  0  0  0  0  0  0  0
   13.5778    0.2606   12.4135 H   0  0  0  0  0  0  0  0  0  0  0  0
   17.5812    2.4967   13.6552 H   0  0  0  0  0  0  0  0  0  0  0  0
   16.5732    3.9091   13.3484 H   0  0  0  0  0  0  0  0  0  0  0  0
   16.3463    2.0497   15.5685 H   0  0  0  0  0  0  0  0  0  0  0  0
   14.9708    4.5363   15.0283 H   0  0  0  0  0  0  0  0  0  0  0  0
   13.3037    3.1109   14.3517 H   0  0  0  0  0  0  0  0  0  0  0  0
   14.1080    1.7944   15.0789 H   0  0  0  0  0  0  0  0  0  0  0  0
   10.5163   -0.5707   14.3538 H   0  0  0  0  0  0  0  0  0  0  0  0
   10.9088   -2.9864   14.6046 H   0  0  0  0  0  0  0  0  0  0  0  0
   12.5848   -3.8178   16.2429 H   0  0  0  0  0  0  0  0  0  0  0  0
   13.9063   -2.1938   17.5711 H   0  0  0  0  0  0  0  0  0  0  0  0
   13.5663    0.2373   17.2889 H   0  0  0  0  0  0  0  0  0  0  0  0
   12.5233    4.5240   15.5879 H   0  0  0  0  0  0  0  0  0  0  0  0
   11.6758    4.0439   16.9572 H   0  0  0  0  0  0  0  0  0  0  0  0
   13.5217    5.4969   17.6143 H   0  0  0  0  0  0  0  0  0  0  0  0
   13.4362    3.9806   18.4926 H   0  0  0  0  0  0  0  0  0  0  0  0
   15.6472    5.0711   17.1024 H   0  0  0  0  0  0  0  0  0  0  0  0
   16.8261    2.9791   17.7950 H   0  0  0  0  0  0  0  0  0  0  0  0
   15.2596    2.2546   18.1956 H   0  0  0  0  0  0  0  0  0  0  0  0
   16.4059    4.6285   19.2666 H   0  0  0  0  0  0  0  0  0  0  0  0
   17.9920   -0.8850   11.9555 H   0  0  0  0  0  0  0  0  0  0  0  0
   16.9214   -2.9961   11.0615 H   0  0  0  0  0  0  0  0  0  0  0  0
   16.1629   -1.5009   10.6078 H   0  0  0  0  0  0  0  0  0  0  0  0
   15.2760   -3.5079   12.2833 H   0  0  0  0  0  0  0  0  0  0  0  0
  1  2  1  0
  2  3  1  0
  3  4  1  0
  4  5  1  0
  5  6  1  0
  6  7  1  0
  7  8  1  0
  7  9  2  0
  7 10  2  0
 10 11  1  0
 11 12  1  0
 12 13  1  0
 13 14  1  0
 14 15  1  0
 15 16  1  0
 16 17  2  0
 16 18  1  0
 18 19  2  0
 19 20  1  0
 20 21  2  0
 21 22  1  0
 22 23  2  0
 15 24  1  0
 24 25  1  0
 25 26  1  0
 26 27  1  0
 27 28  1  0
  6 29  1  0
 29 30  1  0
 30 31  1  0
 29  2  1  0
 26 13  1  0
 23 18  1  0
  1 32  1  0
  1 33  1  0
  1 34  1  0
  2 35  1  0
  3 36  1  0
  3 37  1  0
  4 38  1  0
  4 39  1  0
  5 40  1  0
  5 41  1  0
  8 42  1  0
  8 43  1  0
  8 44  1  0
 11 45  1  0
 11 46  1  0
 12 47  1  0
 13 48  1  0
 14 49  1  0
 14 50  1  0
 19 51  1  0
 20 52  1  0
 21 53  1  0
 22 54  1  0
 23 55  1  0
 24 56  1  0
 24 57  1  0
 25 58  1  0
 25 59  1  0
 26 60  1  0
 27 61  1  0
 27 62  1  0
 28 63  1  0
 29 64  1  0
 30 65  1  0
 30 66  1  0
 31 67  1  0
M  END
>  <Energy>  (374) 
13.085664488857459

>  <compound_id>  (374) 
3361

>  <target_id>  (374) 
1

>  <reference_id>  (374) 
12

>  <inspiration_ids>  (374) 
[113, 12]

>  <energy_score>  (374) 
0.9690981807574701

>  <distance_score>  (374) 
1.438837772892972

>  <path>  (374) 
/opt/xchem-fragalysis-2/maxwin/BulkDock/SCRATCH/505734/C3361-P12/C3361-P12.minimised.mol

>  <scratch_subdir>  (374) 
/opt/xchem-fragalysis-2/maxwin/BulkDock/SCRATCH/505734/C3361-P12

>  <fragmenstein_runtime>  (374) 
4.391680955886841

>  <fragmenstein_outcome>  (374) 
too moved

>  <fragmenstein_mode>  (374) 
expansion

>  <fragmenstein_error>  (374) 


$$$$
C3362-P113
     RDKit          3D

 49 50  0  0  0  0  0  0  0  0999 V2000
   14.6214   -2.5586   20.8830 C   0  0  0  0  0  0  0  0  0  0  0  0
   15.4965   -3.5746   20.1945 N   0  0  0  0  0  0  0  0  0  0  0  0
   15.5792   -4.1213   21.5792 C   0  0  0  0  0  0  0  0  0  0  0  0
   14.8415   -4.0807   19.0288 C   0  0  0  0  0  0  0  0  0  0  0  0
   14.1150   -5.0315   18.8898 O   0  0  0  0  0  0  0  0  0  0  0  0
   15.2798   -3.2649   17.7929 C   0  0  0  0  0  0  0  0  0  0  0  0
   14.6938   -1.9815   17.6684 O   0  0  0  0  0  0  0  0  0  0  0  0
   13.5645   -1.8460   16.9152 C   0  0  0  0  0  0  0  0  0  0  0  0
   12.7317   -2.8632   16.4747 C   0  0  0  0  0  0  0  0  0  0  0  0
   11.5969   -2.5549   15.7147 C   0  0  0  0  0  0  0  0  0  0  0  0
   11.2584   -1.2288   15.4038 C   0  0  0  0  0  0  0  0  0  0  0  0
    9.9699   -0.9910   14.8773 N   0  0  0  0  0  0  0  0  0  0  0  0
   12.0952   -0.1872   15.8603 C   0  0  0  0  0  0  0  0  0  0  0  0
   11.7794    1.2723   15.5394 C   0  0  0  0  0  0  0  0  0  0  0  0
   10.8259    1.4957   14.8386 O   0  0  0  0  0  0  0  0  0  0  0  0
   12.6504    2.1631   16.2260 N   0  0  0  0  0  0  0  0  0  0  0  0
   12.5967    3.6568   16.3908 C   0  0  0  0  0  0  0  0  0  0  0  0
   13.6029    4.2540   17.3787 C   0  0  0  0  0  0  0  0  0  0  0  0
   14.9821    4.2485   16.7374 C   0  0  0  0  0  0  0  0  0  0  0  0
   16.1025    4.5727   17.7238 C   0  0  0  0  0  0  0  0  0  0  0  0
   16.1324    3.6319   18.7847 O   0  0  0  0  0  0  0  0  0  0  0  0
   15.1391    2.8862   16.0797 C   0  0  0  0  0  0  0  0  0  0  0  0
   13.8429    2.5244   15.3351 C   0  0  0  0  0  0  0  0  0  0  0  0
   13.2357   -0.5218   16.6158 C   0  0  0  0  0  0  0  0  0  0  0  0
   14.3554   -1.8192   20.1172 H   0  0  0  0  0  0  0  0  0  0  0  0
   15.1215   -1.9490   21.6508 H   0  0  0  0  0  0  0  0  0  0  0  0
   13.6487   -2.9669   21.1945 H   0  0  0  0  0  0  0  0  0  0  0  0
   14.6384   -4.5298   21.9789 H   0  0  0  0  0  0  0  0  0  0  0  0
   16.1539   -3.5044   22.2847 H   0  0  0  0  0  0  0  0  0  0  0  0
   16.1973   -5.0227   21.4557 H   0  0  0  0  0  0  0  0  0  0  0  0
   16.3629   -3.1084   17.8790 H   0  0  0  0  0  0  0  0  0  0  0  0
   15.1616   -3.8738   16.8879 H   0  0  0  0  0  0  0  0  0  0  0  0
   12.9069   -3.9044   16.7313 H   0  0  0  0  0  0  0  0  0  0  0  0
   10.9435   -3.3677   15.4017 H   0  0  0  0  0  0  0  0  0  0  0  0
    9.9084   -0.0354   14.5102 H   0  0  0  0  0  0  0  0  0  0  0  0
    9.7077   -1.6412   14.1248 H   0  0  0  0  0  0  0  0  0  0  0  0
   11.6207    3.7781   16.8870 H   0  0  0  0  0  0  0  0  0  0  0  0
   12.4205    4.2479   15.4758 H   0  0  0  0  0  0  0  0  0  0  0  0
   13.5912    3.6686   18.3062 H   0  0  0  0  0  0  0  0  0  0  0  0
   13.3136    5.2791   17.6370 H   0  0  0  0  0  0  0  0  0  0  0  0
   14.9975    5.0131   15.9485 H   0  0  0  0  0  0  0  0  0  0  0  0
   17.0734    4.5542   17.2178 H   0  0  0  0  0  0  0  0  0  0  0  0
   15.9537    5.5698   18.1516 H   0  0  0  0  0  0  0  0  0  0  0  0
   16.8405    3.9031   19.3937 H   0  0  0  0  0  0  0  0  0  0  0  0
   15.3602    2.1120   16.8237 H   0  0  0  0  0  0  0  0  0  0  0  0
   15.9795    2.9063   15.3761 H   0  0  0  0  0  0  0  0  0  0  0  0
   14.0919    1.5803   14.8239 H   0  0  0  0  0  0  0  0  0  0  0  0
   13.6136    3.1640   14.4646 H   0  0  0  0  0  0  0  0  0  0  0  0
   13.8876    0.2518   17.0109 H   0  0  0  0  0  0  0  0  0  0  0  0
  1  2  1  0
  2  3  1  0
  2  4  1  0
  4  5  2  0
  4  6  1  0
  6  7  1  0
  7  8  1  0
  8  9  2  0
  9 10  1  0
 10 11  2  0
 11 12  1  0
 11 13  1  0
 13 14  1  0
 14 15  2  0
 14 16  1  0
 16 17  1  0
 17 18  1  0
 18 19  1  0
 19 20  1  0
 20 21  1  0
 19 22  1  0
 22 23  1  0
 13 24  2  0
 24  8  1  0
 23 16  1  0
  1 25  1  0
  1 26  1  0
  1 27  1  0
  3 28  1  0
  3 29  1  0
  3 30  1  0
  6 31  1  0
  6 32  1  0
  9 33  1  0
 10 34  1  0
 12 35  1  0
 12 36  1  0
 17 37  1  0
 17 38  1  0
 18 39  1  0
 18 40  1  0
 19 41  1  0
 20 42  1  0
 20 43  1  0
 21 44  1  0
 22 45  1  0
 22 46  1  0
 23 47  1  0
 23 48  1  0
 24 49  1  0
M  END
>  <Energy>  (375) 
189.28207530901801

>  <compound_id>  (375) 
3362

>  <target_id>  (375) 
1

>  <reference_id>  (375) 
113

>  <inspiration_ids>  (375) 
[113, 15]

>  <energy_score>  (375) 
59.71717543866919

>  <distance_score>  (375) 
1.6375165022547562

>  <path>  (375) 
/opt/xchem-fragalysis-2/maxwin/BulkDock/SCRATCH/505734/C3362-P113/C3362-P113.minimised.mol

>  <scratch_subdir>  (375) 
/opt/xchem-fragalysis-2/maxwin/BulkDock/SCRATCH/505734/C3362-P113

>  <fragmenstein_runtime>  (375) 
4.462200164794922

>  <fragmenstein_outcome>  (375) 
too moved

>  <fragmenstein_mode>  (375) 
expansion

>  <fragmenstein_error>  (375) 


$$$$
C3362-P15
     RDKit          3D

 49 50  0  0  0  0  0  0  0  0999 V2000
   14.2785   -3.2006   20.9116 C   0  0  0  0  0  0  0  0  0  0  0  0
   15.3316   -3.3591   19.8466 N   0  0  0  0  0  0  0  0  0  0  0  0
   16.2177   -3.4489   21.0409 C   0  0  0  0  0  0  0  0  0  0  0  0
   14.9339   -4.3513   18.9073 C   0  0  0  0  0  0  0  0  0  0  0  0
   15.1397   -5.5396   18.8873 O   0  0  0  0  0  0  0  0  0  0  0  0
   14.1130   -3.7325   17.7571 C   0  0  0  0  0  0  0  0  0  0  0  0
   14.0458   -2.3149   17.6966 O   0  0  0  0  0  0  0  0  0  0  0  0
   13.2757   -1.7941   16.6910 C   0  0  0  0  0  0  0  0  0  0  0  0
   12.6325   -2.5372   15.7068 C   0  0  0  0  0  0  0  0  0  0  0  0
   11.8712   -1.8973   14.7323 C   0  0  0  0  0  0  0  0  0  0  0  0
   11.6731   -0.5124   14.7621 C   0  0  0  0  0  0  0  0  0  0  0  0
   10.9841    0.0816   13.6807 N   0  0  0  0  0  0  0  0  0  0  0  0
   12.3387    0.2513   15.7408 C   0  0  0  0  0  0  0  0  0  0  0  0
   12.1131    1.7476   15.8036 C   0  0  0  0  0  0  0  0  0  0  0  0
   11.1320    2.1814   15.2557 O   0  0  0  0  0  0  0  0  0  0  0  0
   13.1126    2.4074   16.5622 N   0  0  0  0  0  0  0  0  0  0  0  0
   13.2132    3.8363   17.0226 C   0  0  0  0  0  0  0  0  0  0  0  0
   14.3425    4.1568   18.0000 C   0  0  0  0  0  0  0  0  0  0  0  0
   15.6536    4.1764   17.2316 C   0  0  0  0  0  0  0  0  0  0  0  0
   16.8758    4.2348   18.1424 C   0  0  0  0  0  0  0  0  0  0  0  0
   16.8807    3.1429   19.0466 O   0  0  0  0  0  0  0  0  0  0  0  0
   15.6312    2.9502   16.3315 C   0  0  0  0  0  0  0  0  0  0  0  0
   14.2555    2.8488   15.6521 C   0  0  0  0  0  0  0  0  0  0  0  0
   13.1422   -0.4021   16.6945 C   0  0  0  0  0  0  0  0  0  0  0  0
   13.3316   -3.0883   20.3667 H   0  0  0  0  0  0  0  0  0  0  0  0
   14.3577   -2.2710   21.4941 H   0  0  0  0  0  0  0  0  0  0  0  0
   14.1012   -4.1014   21.5206 H   0  0  0  0  0  0  0  0  0  0  0  0
   16.0828   -4.3534   21.6533 H   0  0  0  0  0  0  0  0  0  0  0  0
   16.3247   -2.5152   21.6116 H   0  0  0  0  0  0  0  0  0  0  0  0
   17.2145   -3.6038   20.6022 H   0  0  0  0  0  0  0  0  0  0  0  0
   14.5794   -4.1083   16.8368 H   0  0  0  0  0  0  0  0  0  0  0  0
   13.1028   -4.1481   17.8656 H   0  0  0  0  0  0  0  0  0  0  0  0
   12.7118   -3.6169   15.6511 H   0  0  0  0  0  0  0  0  0  0  0  0
   11.4219   -2.4978   13.9452 H   0  0  0  0  0  0  0  0  0  0  0  0
   10.6171    0.9957   13.9623 H   0  0  0  0  0  0  0  0  0  0  0  0
   10.2524   -0.5481   13.3258 H   0  0  0  0  0  0  0  0  0  0  0  0
   12.2967    3.9279   17.6241 H   0  0  0  0  0  0  0  0  0  0  0  0
   13.0156    4.6093   16.2599 H   0  0  0  0  0  0  0  0  0  0  0  0
   14.3537    3.4051   18.7987 H   0  0  0  0  0  0  0  0  0  0  0  0
   14.1690    5.1309   18.4715 H   0  0  0  0  0  0  0  0  0  0  0  0
   15.6687    5.0692   16.5914 H   0  0  0  0  0  0  0  0  0  0  0  0
   17.7968    4.2022   17.5511 H   0  0  0  0  0  0  0  0  0  0  0  0
   16.8704    5.1621   18.7249 H   0  0  0  0  0  0  0  0  0  0  0  0
   17.6801    3.2229   19.5947 H   0  0  0  0  0  0  0  0  0  0  0  0
   15.8213    2.0336   16.9035 H   0  0  0  0  0  0  0  0  0  0  0  0
   16.4179    3.0293   15.5724 H   0  0  0  0  0  0  0  0  0  0  0  0
   14.3779    2.0042   14.9542 H   0  0  0  0  0  0  0  0  0  0  0  0
   14.0214    3.6628   14.9437 H   0  0  0  0  0  0  0  0  0  0  0  0
   13.6505    0.1660   17.4706 H   0  0  0  0  0  0  0  0  0  0  0  0
  1  2  1  0
  2  3  1  0
  2  4  1  0
  4  5  2  0
  4  6  1  0
  6  7  1  0
  7  8  1  0
  8  9  2  0
  9 10  1  0
 10 11  2  0
 11 12  1  0
 11 13  1  0
 13 14  1  0
 14 15  2  0
 14 16  1  0
 16 17  1  0
 17 18  1  0
 18 19  1  0
 19 20  1  0
 20 21  1  0
 19 22  1  0
 22 23  1  0
 13 24  2  0
 24  8  1  0
 23 16  1  0
  1 25  1  0
  1 26  1  0
  1 27  1  0
  3 28  1  0
  3 29  1  0
  3 30  1  0
  6 31  1  0
  6 32  1  0
  9 33  1  0
 10 34  1  0
 12 35  1  0
 12 36  1  0
 17 37  1  0
 17 38  1  0
 18 39  1  0
 18 40  1  0
 19 41  1  0
 20 42  1  0
 20 43  1  0
 21 44  1  0
 22 45  1  0
 22 46  1  0
 23 47  1  0
 23 48  1  0
 24 49  1  0
M  END
>  <Energy>  (376) 
186.8822976970196

>  <compound_id>  (376) 
3362

>  <target_id>  (376) 
1

>  <reference_id>  (376) 
15

>  <inspiration_ids>  (376) 
[113, 15]

>  <energy_score>  (376) 
57.31739782667299

>  <distance_score>  (376) 
1.8037681585546603

>  <path>  (376) 
/opt/xchem-fragalysis-2/maxwin/BulkDock/SCRATCH/505734/C3362-P15/C3362-P15.minimised.mol

>  <scratch_subdir>  (376) 
/opt/xchem-fragalysis-2/maxwin/BulkDock/SCRATCH/505734/C3362-P15

>  <fragmenstein_runtime>  (376) 
5.342980861663818

>  <fragmenstein_outcome>  (376) 
too moved

>  <fragmenstein_mode>  (376) 
expansion

>  <fragmenstein_error>  (376) 


$$$$
C3363-P113
     RDKit          3D

 53 55  0  0  0  0  0  0  0  0999 V2000
   10.4577    1.8264   15.8295 C   0  0  0  0  0  0  0  0  0  0  0  0
   11.8534    1.3280   15.3717 C   0  0  0  0  0  0  0  0  0  0  0  0
   11.8310    1.5504   13.9610 O   0  0  0  0  0  0  0  0  0  0  0  0
   11.9495   -0.2253   15.7047 C   0  0  0  0  0  0  0  0  0  0  0  0
   11.8485   -1.1280   14.4702 C   0  0  0  0  0  0  0  0  0  0  0  0
   11.6560   -2.5965   14.8310 C   0  0  0  0  0  0  0  0  0  0  0  0
   12.2942   -2.9882   16.1604 C   0  0  0  0  0  0  0  0  0  0  0  0
   13.5139   -2.1518   16.5547 C   0  0  0  0  0  0  0  0  0  0  0  0
   14.1197   -2.6629   17.8756 C   0  0  0  0  0  0  0  0  0  0  0  0
   15.3265   -3.4724   17.4528 C   0  0  0  0  0  0  0  0  0  0  0  0
   15.8160   -2.6995   16.2507 C   0  0  0  0  0  0  0  0  0  0  0  0
   14.5807   -2.3533   15.5557 N   0  0  0  0  0  0  0  0  0  0  0  0
   13.1218   -0.6635   16.6357 C   0  0  0  0  0  0  0  0  0  0  0  0
   12.9717    2.0739   15.9527 N   0  0  0  0  0  0  0  0  0  0  0  0
   12.6982    3.4563   16.3616 C   0  0  0  0  0  0  0  0  0  0  0  0
   13.9604    4.2128   16.8112 C   0  0  0  0  0  0  0  0  0  0  0  0
   15.0677    3.2416   17.2369 C   0  0  0  0  0  0  0  0  0  0  0  0
   16.3034    3.9611   17.7675 C   0  0  0  0  0  0  0  0  0  0  0  0
   15.9648    4.6690   18.9531 O   0  0  0  0  0  0  0  0  0  0  0  0
   15.4170    2.3166   16.0601 C   0  0  0  0  0  0  0  0  0  0  0  0
   14.2056    2.0284   15.1568 C   0  0  0  0  0  0  0  0  0  0  0  0
   10.2255    2.8147   15.4150 H   0  0  0  0  0  0  0  0  0  0  0  0
   10.3554    1.8779   16.9125 H   0  0  0  0  0  0  0  0  0  0  0  0
    9.6706    1.1605   15.4564 H   0  0  0  0  0  0  0  0  0  0  0  0
   11.0408    1.1166   13.6023 H   0  0  0  0  0  0  0  0  0  0  0  0
   11.0552   -0.4593   16.3008 H   0  0  0  0  0  0  0  0  0  0  0  0
   10.9997   -0.8386   13.8462 H   0  0  0  0  0  0  0  0  0  0  0  0
   12.7453   -1.0106   13.8503 H   0  0  0  0  0  0  0  0  0  0  0  0
   10.5837   -2.8228   14.8842 H   0  0  0  0  0  0  0  0  0  0  0  0
   12.0397   -3.2046   14.0073 H   0  0  0  0  0  0  0  0  0  0  0  0
   11.5409   -2.8446   16.9273 H   0  0  0  0  0  0  0  0  0  0  0  0
   12.5076   -4.0599   16.1894 H   0  0  0  0  0  0  0  0  0  0  0  0
   14.4594   -1.8289   18.5029 H   0  0  0  0  0  0  0  0  0  0  0  0
   13.4270   -3.2676   18.4699 H   0  0  0  0  0  0  0  0  0  0  0  0
   16.0786   -3.5467   18.2431 H   0  0  0  0  0  0  0  0  0  0  0  0
   15.0239   -4.4804   17.1621 H   0  0  0  0  0  0  0  0  0  0  0  0
   16.3452   -1.7907   16.5600 H   0  0  0  0  0  0  0  0  0  0  0  0
   16.4804   -3.2946   15.6186 H   0  0  0  0  0  0  0  0  0  0  0  0
   14.7172   -1.5423   14.9560 H   0  0  0  0  0  0  0  0  0  0  0  0
   12.8524   -0.3970   17.6588 H   0  0  0  0  0  0  0  0  0  0  0  0
   14.0320   -0.0942   16.4583 H   0  0  0  0  0  0  0  0  0  0  0  0
   12.0054    3.4498   17.2083 H   0  0  0  0  0  0  0  0  0  0  0  0
   12.2260    4.0282   15.5530 H   0  0  0  0  0  0  0  0  0  0  0  0
   13.6990    4.8945   17.6289 H   0  0  0  0  0  0  0  0  0  0  0  0
   14.3239    4.8360   15.9834 H   0  0  0  0  0  0  0  0  0  0  0  0
   14.6645    2.6291   18.0567 H   0  0  0  0  0  0  0  0  0  0  0  0
   17.0914    3.2416   18.0136 H   0  0  0  0  0  0  0  0  0  0  0  0
   16.6949    4.6742   17.0345 H   0  0  0  0  0  0  0  0  0  0  0  0
   16.7804    5.0836   19.2809 H   0  0  0  0  0  0  0  0  0  0  0  0
   15.8234    1.3796   16.4603 H   0  0  0  0  0  0  0  0  0  0  0  0
   16.2086    2.7587   15.4423 H   0  0  0  0  0  0  0  0  0  0  0  0
   14.1647    2.7669   14.3442 H   0  0  0  0  0  0  0  0  0  0  0  0
   14.3631    1.0595   14.6682 H   0  0  0  0  0  0  0  0  0  0  0  0
  1  2  1  0
  2  3  1  0
  2  4  1  0
  4  5  1  0
  5  6  1  0
  6  7  1  0
  7  8  1  0
  8  9  1  0
  9 10  1  0
 10 11  1  0
 11 12  1  0
  8 13  1  0
  2 14  1  0
 14 15  1  0
 15 16  1  0
 16 17  1  0
 17 18  1  0
 18 19  1  0
 17 20  1  0
 20 21  1  0
 13  4  1  0
 21 14  1  0
 12  8  1  0
  1 22  1  0
  1 23  1  0
  1 24  1  0
  3 25  1  0
  4 26  1  0
  5 27  1  0
  5 28  1  0
  6 29  1  0
  6 30  1  0
  7 31  1  0
  7 32  1  0
  9 33  1  0
  9 34  1  0
 10 35  1  0
 10 36  1  0
 11 37  1  0
 11 38  1  0
 12 39  1  0
 13 40  1  0
 13 41  1  0
 15 42  1  0
 15 43  1  0
 16 44  1  0
 16 45  1  0
 17 46  1  0
 18 47  1  0
 18 48  1  0
 19 49  1  0
 20 50  1  0
 20 51  1  0
 21 52  1  0
 21 53  1  0
M  END
>  <Energy>  (377) 
19.82836397193762

>  <compound_id>  (377) 
3363

>  <target_id>  (377) 
1

>  <reference_id>  (377) 
113

>  <inspiration_ids>  (377) 
[113, 20]

>  <energy_score>  (377) 
-48.116407761983325

>  <distance_score>  (377) 
0.9632148987660247

>  <path>  (377) 
/opt/xchem-fragalysis-2/maxwin/BulkDock/SCRATCH/505734/C3363-P113/C3363-P113.minimised.mol

>  <scratch_subdir>  (377) 
/opt/xchem-fragalysis-2/maxwin/BulkDock/SCRATCH/505734/C3363-P113

>  <fragmenstein_runtime>  (377) 
1.7765860557556152

>  <fragmenstein_outcome>  (377) 
acceptable

>  <fragmenstein_mode>  (377) 
expansion

>  <fragmenstein_error>  (377) 


$$$$
C3363-P20
     RDKit          3D

 53 55  0  0  0  0  0  0  0  0999 V2000
   10.5946    1.5250   15.6010 C   0  0  0  0  0  0  0  0  0  0  0  0
   12.0544    1.0987   15.2829 C   0  0  0  0  0  0  0  0  0  0  0  0
   12.1464    1.3240   13.8760 O   0  0  0  0  0  0  0  0  0  0  0  0
   12.1963   -0.4490   15.6377 C   0  0  0  0  0  0  0  0  0  0  0  0
   12.0802   -1.3682   14.4273 C   0  0  0  0  0  0  0  0  0  0  0  0
   11.7968   -2.8033   14.8459 C   0  0  0  0  0  0  0  0  0  0  0  0
   12.5188   -3.2325   16.1222 C   0  0  0  0  0  0  0  0  0  0  0  0
   13.7568   -2.3992   16.4827 C   0  0  0  0  0  0  0  0  0  0  0  0
   14.3567   -2.8823   17.8211 C   0  0  0  0  0  0  0  0  0  0  0  0
   15.7769   -3.3061   17.5149 C   0  0  0  0  0  0  0  0  0  0  0  0
   15.7434   -3.6276   16.0443 C   0  0  0  0  0  0  0  0  0  0  0  0
   14.8181   -2.6452   15.4784 N   0  0  0  0  0  0  0  0  0  0  0  0
   13.4099   -0.8855   16.5148 C   0  0  0  0  0  0  0  0  0  0  0  0
   13.0823    1.8936   15.9611 N   0  0  0  0  0  0  0  0  0  0  0  0
   12.6987    3.2473   16.3812 C   0  0  0  0  0  0  0  0  0  0  0  0
   13.8876    4.0846   16.8901 C   0  0  0  0  0  0  0  0  0  0  0  0
   15.0480    3.1928   17.3497 C   0  0  0  0  0  0  0  0  0  0  0  0
   16.2224    3.9959   17.9012 C   0  0  0  0  0  0  0  0  0  0  0  0
   15.8122    4.7004   19.0646 O   0  0  0  0  0  0  0  0  0  0  0  0
   15.4953    2.2827   16.1955 C   0  0  0  0  0  0  0  0  0  0  0  0
   14.3526    1.9602   15.2234 C   0  0  0  0  0  0  0  0  0  0  0  0
   10.3610    2.5095   15.1784 H   0  0  0  0  0  0  0  0  0  0  0  0
   10.3741    1.5516   16.6677 H   0  0  0  0  0  0  0  0  0  0  0  0
    9.8823    0.8328   15.1340 H   0  0  0  0  0  0  0  0  0  0  0  0
   11.4030    0.8708   13.4479 H   0  0  0  0  0  0  0  0  0  0  0  0
   11.3270   -0.6856   16.2652 H   0  0  0  0  0  0  0  0  0  0  0  0
   11.2687   -1.0496   13.7776 H   0  0  0  0  0  0  0  0  0  0  0  0
   12.9965   -1.3202   13.8266 H   0  0  0  0  0  0  0  0  0  0  0  0
   10.7189   -2.9302   15.0047 H   0  0  0  0  0  0  0  0  0  0  0  0
   12.0418   -3.4569   14.0065 H   0  0  0  0  0  0  0  0  0  0  0  0
   11.8120   -3.1501   16.9454 H   0  0  0  0  0  0  0  0  0  0  0  0
   12.7570   -4.3005   16.0748 H   0  0  0  0  0  0  0  0  0  0  0  0
   13.8032   -3.7418   18.2194 H   0  0  0  0  0  0  0  0  0  0  0  0
   14.3670   -2.1139   18.6005 H   0  0  0  0  0  0  0  0  0  0  0  0
   16.4625   -2.4711   17.7047 H   0  0  0  0  0  0  0  0  0  0  0  0
   16.0991   -4.1550   18.1251 H   0  0  0  0  0  0  0  0  0  0  0  0
   16.7323   -3.5645   15.5807 H   0  0  0  0  0  0  0  0  0  0  0  0
   15.3624   -4.6368   15.8836 H   0  0  0  0  0  0  0  0  0  0  0  0
   15.3412   -1.7878   15.3024 H   0  0  0  0  0  0  0  0  0  0  0  0
   13.2230   -0.5653   17.5414 H   0  0  0  0  0  0  0  0  0  0  0  0
   14.3134   -0.3428   16.2432 H   0  0  0  0  0  0  0  0  0  0  0  0
   11.9725    3.1725   17.1952 H   0  0  0  0  0  0  0  0  0  0  0  0
   12.2224    3.8022   15.5633 H   0  0  0  0  0  0  0  0  0  0  0  0
   13.5468    4.7350   17.7041 H   0  0  0  0  0  0  0  0  0  0  0  0
   14.2365    4.7435   16.0840 H   0  0  0  0  0  0  0  0  0  0  0  0
   14.6648    2.5615   18.1648 H   0  0  0  0  0  0  0  0  0  0  0  0
   17.0465    3.3303   18.1788 H   0  0  0  0  0  0  0  0  0  0  0  0
   16.5888    4.7202   17.1660 H   0  0  0  0  0  0  0  0  0  0  0  0
   16.5917    5.1718   19.4036 H   0  0  0  0  0  0  0  0  0  0  0  0
   15.9048    1.3576   16.6197 H   0  0  0  0  0  0  0  0  0  0  0  0
   16.3088    2.7488   15.6256 H   0  0  0  0  0  0  0  0  0  0  0  0
   14.3025    2.7304   14.4408 H   0  0  0  0  0  0  0  0  0  0  0  0
   14.5978    1.0288   14.6996 H   0  0  0  0  0  0  0  0  0  0  0  0
  1  2  1  0
  2  3  1  0
  2  4  1  0
  4  5  1  0
  5  6  1  0
  6  7  1  0
  7  8  1  0
  8  9  1  0
  9 10  1  0
 10 11  1  0
 11 12  1  0
  8 13  1  0
  2 14  1  0
 14 15  1  0
 15 16  1  0
 16 17  1  0
 17 18  1  0
 18 19  1  0
 17 20  1  0
 20 21  1  0
 13  4  1  0
 21 14  1  0
 12  8  1  0
  1 22  1  0
  1 23  1  0
  1 24  1  0
  3 25  1  0
  4 26  1  0
  5 27  1  0
  5 28  1  0
  6 29  1  0
  6 30  1  0
  7 31  1  0
  7 32  1  0
  9 33  1  0
  9 34  1  0
 10 35  1  0
 10 36  1  0
 11 37  1  0
 11 38  1  0
 12 39  1  0
 13 40  1  0
 13 41  1  0
 15 42  1  0
 15 43  1  0
 16 44  1  0
 16 45  1  0
 17 46  1  0
 18 47  1  0
 18 48  1  0
 19 49  1  0
 20 50  1  0
 20 51  1  0
 21 52  1  0
 21 53  1  0
M  END
>  <Energy>  (378) 
21.67096293055415

>  <compound_id>  (378) 
3363

>  <target_id>  (378) 
1

>  <reference_id>  (378) 
20

>  <inspiration_ids>  (378) 
[113, 20]

>  <energy_score>  (378) 
-46.27380880336656

>  <distance_score>  (378) 
1.0745385377968184

>  <path>  (378) 
/opt/xchem-fragalysis-2/maxwin/BulkDock/SCRATCH/505734/C3363-P20/C3363-P20.minimised.mol

>  <scratch_subdir>  (378) 
/opt/xchem-fragalysis-2/maxwin/BulkDock/SCRATCH/505734/C3363-P20

>  <fragmenstein_runtime>  (378) 
2.020538330078125

>  <fragmenstein_outcome>  (378) 
too moved

>  <fragmenstein_mode>  (378) 
expansion

>  <fragmenstein_error>  (378) 


$$$$
C3364-P113
     RDKit          3D

 61 63  0  0  0  0  0  0  0  0999 V2000
   18.8577   -6.0626   17.6779 C   0  0  0  0  0  0  0  0  0  0  0  0
   17.7202   -5.2827   17.0519 C   0  0  0  0  0  0  0  0  0  0  0  0
   16.9504   -5.8315   16.3197 O   0  0  0  0  0  0  0  0  0  0  0  0
   17.7934   -3.9169   17.4803 N   0  0  0  0  0  0  0  0  0  0  0  0
   16.9083   -2.7985   17.2390 C   0  0  0  0  0  0  0  0  0  0  0  0
   15.6367   -2.9281   18.0734 C   0  0  0  0  0  0  0  0  0  0  0  0
   14.6106   -1.7829   18.0364 C   0  0  0  0  0  0  0  0  0  0  0  0
   15.1845   -0.3877   17.9620 C   0  0  0  0  0  0  0  0  0  0  0  0
   15.2870   -0.1009   16.5270 N   0  0  0  0  0  0  0  0  0  0  0  0
   14.1435   -0.7433   15.8395 C   0  0  0  0  0  0  0  0  0  0  0  0
   14.7420   -1.4766   14.5938 C   0  0  0  0  0  0  0  0  0  0  0  0
   13.6966   -1.7592   13.5115 C   0  0  0  0  0  0  0  0  0  0  0  0
   13.1026   -0.4693   12.9646 C   0  0  0  0  0  0  0  0  0  0  0  0
   13.7342   -0.1329   11.8065 F   0  0  0  0  0  0  0  0  0  0  0  0
   13.2431    0.6988   13.9191 C   0  0  0  0  0  0  0  0  0  0  0  0
   12.9906    0.2113   15.3419 C   0  0  0  0  0  0  0  0  0  0  0  0
   12.4765    1.3834   16.2023 C   0  0  0  0  0  0  0  0  0  0  0  0
   11.2810    1.4793   16.3326 O   0  0  0  0  0  0  0  0  0  0  0  0
   13.5340    2.1291   16.7940 N   0  0  0  0  0  0  0  0  0  0  0  0
   13.5099    3.1958   17.8520 C   0  0  0  0  0  0  0  0  0  0  0  0
   14.8710    3.6166   18.4000 C   0  0  0  0  0  0  0  0  0  0  0  0
   15.5880    4.4534   17.3567 C   0  0  0  0  0  0  0  0  0  0  0  0
   17.0682    4.6330   17.6700 C   0  0  0  0  0  0  0  0  0  0  0  0
   17.2211    5.3076   18.9107 O   0  0  0  0  0  0  0  0  0  0  0  0
   15.3588    3.7879   16.0125 C   0  0  0  0  0  0  0  0  0  0  0  0
   13.8967    3.3267   15.9088 C   0  0  0  0  0  0  0  0  0  0  0  0
   13.6370   -1.7980   16.8522 C   0  0  0  0  0  0  0  0  0  0  0  0
   18.8348   -7.0961   17.3194 H   0  0  0  0  0  0  0  0  0  0  0  0
   19.8170   -5.6187   17.3968 H   0  0  0  0  0  0  0  0  0  0  0  0
   18.7505   -6.0683   18.7663 H   0  0  0  0  0  0  0  0  0  0  0  0
   18.5296   -3.8263   18.1702 H   0  0  0  0  0  0  0  0  0  0  0  0
   16.6887   -2.8062   16.1741 H   0  0  0  0  0  0  0  0  0  0  0  0
   17.4717   -1.8948   17.4841 H   0  0  0  0  0  0  0  0  0  0  0  0
   15.1297   -3.8711   17.8300 H   0  0  0  0  0  0  0  0  0  0  0  0
   15.9530   -3.0385   19.1210 H   0  0  0  0  0  0  0  0  0  0  0  0
   14.0332   -1.8877   18.9610 H   0  0  0  0  0  0  0  0  0  0  0  0
   16.1505   -0.2831   18.4637 H   0  0  0  0  0  0  0  0  0  0  0  0
   14.4936    0.3136   18.4423 H   0  0  0  0  0  0  0  0  0  0  0  0
   15.2185    0.9112   16.4089 H   0  0  0  0  0  0  0  0  0  0  0  0
   15.1968   -2.4282   14.8752 H   0  0  0  0  0  0  0  0  0  0  0  0
   15.5463   -0.8769   14.1451 H   0  0  0  0  0  0  0  0  0  0  0  0
   14.1473   -2.3363   12.6967 H   0  0  0  0  0  0  0  0  0  0  0  0
   12.8930   -2.3691   13.9403 H   0  0  0  0  0  0  0  0  0  0  0  0
   12.0444   -0.6202   12.7369 H   0  0  0  0  0  0  0  0  0  0  0  0
   12.5351    1.4822   13.6217 H   0  0  0  0  0  0  0  0  0  0  0  0
   14.2428    1.1383   13.8192 H   0  0  0  0  0  0  0  0  0  0  0  0
   12.0982   -0.4363   15.2833 H   0  0  0  0  0  0  0  0  0  0  0  0
   13.0614    2.6384   18.6865 H   0  0  0  0  0  0  0  0  0  0  0  0
   12.7701    4.0039   17.7272 H   0  0  0  0  0  0  0  0  0  0  0  0
   15.4591    2.7253   18.6521 H   0  0  0  0  0  0  0  0  0  0  0  0
   14.7373    4.1893   19.3250 H   0  0  0  0  0  0  0  0  0  0  0  0
   15.1122    5.4440   17.3461 H   0  0  0  0  0  0  0  0  0  0  0  0
   17.5487    5.2427   16.8980 H   0  0  0  0  0  0  0  0  0  0  0  0
   17.5988    3.6759   17.7205 H   0  0  0  0  0  0  0  0  0  0  0  0
   17.0668    4.6625   19.6219 H   0  0  0  0  0  0  0  0  0  0  0  0
   16.0270    2.9278   15.8850 H   0  0  0  0  0  0  0  0  0  0  0  0
   15.5856    4.4924   15.2037 H   0  0  0  0  0  0  0  0  0  0  0  0
   13.1539    4.1433   15.8764 H   0  0  0  0  0  0  0  0  0  0  0  0
   13.8180    2.9593   14.8812 H   0  0  0  0  0  0  0  0  0  0  0  0
   13.5298   -2.8008   16.4263 H   0  0  0  0  0  0  0  0  0  0  0  0
   12.6466   -1.5061   17.2169 H   0  0  0  0  0  0  0  0  0  0  0  0
  1  2  1  0
  2  3  2  0
  2  4  1  0
  4  5  1  0
  5  6  1  0
  6  7  1  0
  7  8  1  0
  8  9  1  0
  9 10  1  0
 10 11  1  0
 11 12  1  0
 12 13  1  0
 13 14  1  0
 13 15  1  0
 15 16  1  0
 16 17  1  0
 17 18  2  0
 17 19  1  0
 19 20  1  0
 20 21  1  0
 21 22  1  0
 22 23  1  0
 23 24  1  0
 22 25  1  0
 25 26  1  0
 10 27  1  0
 27  7  1  0
 16 10  1  0
 26 19  1  0
  1 28  1  0
  1 29  1  0
  1 30  1  0
  4 31  1  0
  5 32  1  0
  5 33  1  0
  6 34  1  0
  6 35  1  0
  7 36  1  0
  8 37  1  0
  8 38  1  0
  9 39  1  0
 11 40  1  0
 11 41  1  0
 12 42  1  0
 12 43  1  0
 13 44  1  0
 15 45  1  0
 15 46  1  0
 16 47  1  0
 20 48  1  0
 20 49  1  0
 21 50  1  0
 21 51  1  0
 22 52  1  0
 23 53  1  0
 23 54  1  0
 24 55  1  0
 25 56  1  0
 25 57  1  0
 26 58  1  0
 26 59  1  0
 27 60  1  0
 27 61  1  0
M  END
>  <Energy>  (379) 
87.111627227190127

>  <compound_id>  (379) 
3364

>  <target_id>  (379) 
1

>  <reference_id>  (379) 
113

>  <inspiration_ids>  (379) 
[113, 23]

>  <energy_score>  (379) 
40.41462530948721

>  <distance_score>  (379) 
2.380158080400843

>  <path>  (379) 
/opt/xchem-fragalysis-2/maxwin/BulkDock/SCRATCH/505734/C3364-P113/C3364-P113.minimised.mol

>  <scratch_subdir>  (379) 
/opt/xchem-fragalysis-2/maxwin/BulkDock/SCRATCH/505734/C3364-P113

>  <fragmenstein_runtime>  (379) 
9.236070394515991

>  <fragmenstein_outcome>  (379) 
too moved

>  <fragmenstein_mode>  (379) 
expansion

>  <fragmenstein_error>  (379) 


$$$$
C3364-P23
     RDKit          3D

 61 63  0  0  0  0  0  0  0  0999 V2000
   18.6903   -7.0722   17.7336 C   0  0  0  0  0  0  0  0  0  0  0  0
   17.7464   -6.1427   16.9989 C   0  0  0  0  0  0  0  0  0  0  0  0
   16.9743   -6.5837   16.1985 O   0  0  0  0  0  0  0  0  0  0  0  0
   17.9583   -4.7996   17.4551 N   0  0  0  0  0  0  0  0  0  0  0  0
   17.3743   -3.5487   17.0247 C   0  0  0  0  0  0  0  0  0  0  0  0
   16.8970   -2.7331   18.2224 C   0  0  0  0  0  0  0  0  0  0  0  0
   16.3391   -1.3334   17.9289 C   0  0  0  0  0  0  0  0  0  0  0  0
   17.3093   -0.3931   17.2381 C   0  0  0  0  0  0  0  0  0  0  0  0
   16.9644   -0.4447   15.8206 N   0  0  0  0  0  0  0  0  0  0  0  0
   15.5122   -0.6580   15.6891 C   0  0  0  0  0  0  0  0  0  0  0  0
   15.3660   -1.6793   14.5125 C   0  0  0  0  0  0  0  0  0  0  0  0
   13.9941   -1.6258   13.8407 C   0  0  0  0  0  0  0  0  0  0  0  0
   13.7561   -0.2681   13.1952 C   0  0  0  0  0  0  0  0  0  0  0  0
   14.1351   -0.3249   11.8864 F   0  0  0  0  0  0  0  0  0  0  0  0
   14.5536    0.8536   13.8489 C   0  0  0  0  0  0  0  0  0  0  0  0
   14.6531    0.6173   15.3624 C   0  0  0  0  0  0  0  0  0  0  0  0
   14.8492    1.8712   16.2616 C   0  0  0  0  0  0  0  0  0  0  0  0
   14.9444    1.7228   17.4542 O   0  0  0  0  0  0  0  0  0  0  0  0
   14.7884    3.0647   15.4772 N   0  0  0  0  0  0  0  0  0  0  0  0
   14.7101    4.5057   15.8888 C   0  0  0  0  0  0  0  0  0  0  0  0
   15.3235    4.8544   17.2390 C   0  0  0  0  0  0  0  0  0  0  0  0
   16.8363    4.7104   17.1893 C   0  0  0  0  0  0  0  0  0  0  0  0
   17.4146    4.4502   18.5828 C   0  0  0  0  0  0  0  0  0  0  0  0
   17.1034    3.1592   19.0895 O   0  0  0  0  0  0  0  0  0  0  0  0
   17.2339    3.6395   16.1795 C   0  0  0  0  0  0  0  0  0  0  0  0
   16.1928    3.4893   15.0567 C   0  0  0  0  0  0  0  0  0  0  0  0
   15.1058   -1.3246   17.0263 C   0  0  0  0  0  0  0  0  0  0  0  0
   19.7261   -6.8193   17.4908 H   0  0  0  0  0  0  0  0  0  0  0  0
   18.5274   -6.9964   18.8125 H   0  0  0  0  0  0  0  0  0  0  0  0
   18.5012   -8.1050   17.4257 H   0  0  0  0  0  0  0  0  0  0  0  0
   18.7557   -4.7851   18.0801 H   0  0  0  0  0  0  0  0  0  0  0  0
   16.5468   -3.7953   16.3583 H   0  0  0  0  0  0  0  0  0  0  0  0
   18.1443   -3.0209   16.4558 H   0  0  0  0  0  0  0  0  0  0  0  0
   17.7318   -2.6257   18.9285 H   0  0  0  0  0  0  0  0  0  0  0  0
   16.1315   -3.3104   18.7584 H   0  0  0  0  0  0  0  0  0  0  0  0
   16.0665   -0.9023   18.9019 H   0  0  0  0  0  0  0  0  0  0  0  0
   18.3560   -0.6708   17.3963 H   0  0  0  0  0  0  0  0  0  0  0  0
   17.1870    0.6224   17.6222 H   0  0  0  0  0  0  0  0  0  0  0  0
   17.2811    0.3905   15.3353 H   0  0  0  0  0  0  0  0  0  0  0  0
   15.5583   -2.7017   14.8469 H   0  0  0  0  0  0  0  0  0  0  0  0
   16.1215   -1.4790   13.7384 H   0  0  0  0  0  0  0  0  0  0  0  0
   13.9270   -2.3942   13.0652 H   0  0  0  0  0  0  0  0  0  0  0  0
   13.2178   -1.8332   14.5866 H   0  0  0  0  0  0  0  0  0  0  0  0
   12.6856   -0.0380   13.2098 H   0  0  0  0  0  0  0  0  0  0  0  0
   14.0521    1.7930   13.5930 H   0  0  0  0  0  0  0  0  0  0  0  0
   15.5516    0.9153   13.3987 H   0  0  0  0  0  0  0  0  0  0  0  0
   13.6234    0.3495   15.6339 H   0  0  0  0  0  0  0  0  0  0  0  0
   13.6273    4.6067   16.0674 H   0  0  0  0  0  0  0  0  0  0  0  0
   14.8553    5.2626   15.0998 H   0  0  0  0  0  0  0  0  0  0  0  0
   14.8757    4.2282   18.0178 H   0  0  0  0  0  0  0  0  0  0  0  0
   15.0628    5.8862   17.5059 H   0  0  0  0  0  0  0  0  0  0  0  0
   17.2386    5.6684   16.8320 H   0  0  0  0  0  0  0  0  0  0  0  0
   17.0459    5.1935   19.2976 H   0  0  0  0  0  0  0  0  0  0  0  0
   18.5061    4.5336   18.5556 H   0  0  0  0  0  0  0  0  0  0  0  0
   16.2562    2.8392   18.7205 H   0  0  0  0  0  0  0  0  0  0  0  0
   17.3836    2.6716   16.6644 H   0  0  0  0  0  0  0  0  0  0  0  0
   18.2059    3.8954   15.7395 H   0  0  0  0  0  0  0  0  0  0  0  0
   16.2382    4.2828   14.2917 H   0  0  0  0  0  0  0  0  0  0  0  0
   16.5609    2.6284   14.4799 H   0  0  0  0  0  0  0  0  0  0  0  0
   14.6818   -2.3265   16.8991 H   0  0  0  0  0  0  0  0  0  0  0  0
   14.3473   -0.7371   17.5429 H   0  0  0  0  0  0  0  0  0  0  0  0
  1  2  1  0
  2  3  2  0
  2  4  1  0
  4  5  1  0
  5  6  1  0
  6  7  1  0
  7  8  1  0
  8  9  1  0
  9 10  1  0
 10 11  1  0
 11 12  1  0
 12 13  1  0
 13 14  1  0
 13 15  1  0
 15 16  1  0
 16 17  1  0
 17 18  2  0
 17 19  1  0
 19 20  1  0
 20 21  1  0
 21 22  1  0
 22 23  1  0
 23 24  1  0
 22 25  1  0
 25 26  1  0
 10 27  1  0
 27  7  1  0
 16 10  1  0
 26 19  1  0
  1 28  1  0
  1 29  1  0
  1 30  1  0
  4 31  1  0
  5 32  1  0
  5 33  1  0
  6 34  1  0
  6 35  1  0
  7 36  1  0
  8 37  1  0
  8 38  1  0
  9 39  1  0
 11 40  1  0
 11 41  1  0
 12 42  1  0
 12 43  1  0
 13 44  1  0
 15 45  1  0
 15 46  1  0
 16 47  1  0
 20 48  1  0
 20 49  1  0
 21 50  1  0
 21 51  1  0
 22 52  1  0
 23 53  1  0
 23 54  1  0
 24 55  1  0
 25 56  1  0
 25 57  1  0
 26 58  1  0
 26 59  1  0
 27 60  1  0
 27 61  1  0
M  END
>  <Energy>  (380) 
88.611055514778187

>  <compound_id>  (380) 
3364

>  <target_id>  (380) 
1

>  <reference_id>  (380) 
23

>  <inspiration_ids>  (380) 
[113, 23]

>  <energy_score>  (380) 
41.91405359707744

>  <distance_score>  (380) 
3.124173396735832

>  <path>  (380) 
/opt/xchem-fragalysis-2/maxwin/BulkDock/SCRATCH/505734/C3364-P23/C3364-P23.minimised.mol

>  <scratch_subdir>  (380) 
/opt/xchem-fragalysis-2/maxwin/BulkDock/SCRATCH/505734/C3364-P23

>  <fragmenstein_runtime>  (380) 
8.738483428955078

>  <fragmenstein_outcome>  (380) 
too moved

>  <fragmenstein_mode>  (380) 
expansion

>  <fragmenstein_error>  (380) 


$$$$
C3369-P113
     RDKit          3D

 35 36  0  0  0  0  0  0  0  0999 V2000
   13.6148   -0.0494   17.6404 N   0  0  0  0  0  0  0  0  0  0  0  0
   12.9643   -0.8364   16.6775 C   0  0  0  0  0  0  0  0  0  0  0  0
   12.9902   -2.2251   16.8928 C   0  0  0  0  0  0  0  0  0  0  0  0
   12.1945   -3.0865   16.1460 C   0  0  0  0  0  0  0  0  0  0  0  0
   11.3888   -2.5829   15.1364 C   0  0  0  0  0  0  0  0  0  0  0  0
   11.3511   -1.2095   14.9048 C   0  0  0  0  0  0  0  0  0  0  0  0
   12.1118   -0.3117   15.6787 C   0  0  0  0  0  0  0  0  0  0  0  0
   11.9221    1.1632   15.3513 C   0  0  0  0  0  0  0  0  0  0  0  0
   11.0523    1.4427   14.6097 O   0  0  0  0  0  0  0  0  0  0  0  0
   12.8850    2.0487   16.1056 N   0  0  0  0  0  0  0  0  0  0  0  0
   12.9571    3.5506   16.2159 C   0  0  0  0  0  0  0  0  0  0  0  0
   13.9244    4.1159   17.2514 C   0  0  0  0  0  0  0  0  0  0  0  0
   15.3372    3.9799   16.7135 C   0  0  0  0  0  0  0  0  0  0  0  0
   16.4117    4.2847   17.7548 C   0  0  0  0  0  0  0  0  0  0  0  0
   16.1227    3.7074   19.0160 O   0  0  0  0  0  0  0  0  0  0  0  0
   15.4305    2.5859   16.1147 C   0  0  0  0  0  0  0  0  0  0  0  0
   14.1541    2.3086   15.2896 C   0  0  0  0  0  0  0  0  0  0  0  0
   13.6223    0.9420   17.3990 H   0  0  0  0  0  0  0  0  0  0  0  0
   14.4917   -0.4182   17.9886 H   0  0  0  0  0  0  0  0  0  0  0  0
   13.5872   -2.6408   17.7020 H   0  0  0  0  0  0  0  0  0  0  0  0
   12.1934   -4.1486   16.3736 H   0  0  0  0  0  0  0  0  0  0  0  0
   10.7724   -3.2483   14.5366 H   0  0  0  0  0  0  0  0  0  0  0  0
   10.6966   -0.8391   14.1160 H   0  0  0  0  0  0  0  0  0  0  0  0
   12.8736    4.1232   15.2753 H   0  0  0  0  0  0  0  0  0  0  0  0
   11.9626    3.7625   16.6425 H   0  0  0  0  0  0  0  0  0  0  0  0
   13.6964    5.1697   17.4484 H   0  0  0  0  0  0  0  0  0  0  0  0
   13.7929    3.5711   18.1940 H   0  0  0  0  0  0  0  0  0  0  0  0
   15.4690    4.6938   15.8881 H   0  0  0  0  0  0  0  0  0  0  0  0
   16.4704    5.3674   17.9091 H   0  0  0  0  0  0  0  0  0  0  0  0
   17.3992    3.9463   17.4240 H   0  0  0  0  0  0  0  0  0  0  0  0
   16.1441    2.7405   18.9231 H   0  0  0  0  0  0  0  0  0  0  0  0
   15.5523    1.8289   16.8962 H   0  0  0  0  0  0  0  0  0  0  0  0
   16.3108    2.5178   15.4646 H   0  0  0  0  0  0  0  0  0  0  0  0
   14.3573    1.3257   14.8337 H   0  0  0  0  0  0  0  0  0  0  0  0
   14.0352    2.9224   14.3790 H   0  0  0  0  0  0  0  0  0  0  0  0
  1  2  1  0
  2  3  2  0
  3  4  1  0
  4  5  2  0
  5  6  1  0
  6  7  2  0
  7  8  1  0
  8  9  2  0
  8 10  1  0
 10 11  1  0
 11 12  1  0
 12 13  1  0
 13 14  1  0
 14 15  1  0
 13 16  1  0
 16 17  1  0
  7  2  1  0
 17 10  1  0
  1 18  1  0
  1 19  1  0
  3 20  1  0
  4 21  1  0
  5 22  1  0
  6 23  1  0
 11 24  1  0
 11 25  1  0
 12 26  1  0
 12 27  1  0
 13 28  1  0
 14 29  1  0
 14 30  1  0
 15 31  1  0
 16 32  1  0
 16 33  1  0
 17 34  1  0
 17 35  1  0
M  END
>  <Energy>  (381) 
124.18664916607791

>  <compound_id>  (381) 
3369

>  <target_id>  (381) 
1

>  <reference_id>  (381) 
113

>  <inspiration_ids>  (381) 
[113, 55]

>  <energy_score>  (381) 
25.055994549954306

>  <distance_score>  (381) 
1.0200809828418609

>  <path>  (381) 
/opt/xchem-fragalysis-2/maxwin/BulkDock/SCRATCH/505734/C3369-P113/C3369-P113.minimised.mol

>  <scratch_subdir>  (381) 
/opt/xchem-fragalysis-2/maxwin/BulkDock/SCRATCH/505734/C3369-P113

>  <fragmenstein_runtime>  (381) 
1.321589708328247

>  <fragmenstein_outcome>  (381) 
too moved

>  <fragmenstein_mode>  (381) 
expansion

>  <fragmenstein_error>  (381) 


$$$$
C3369-P55
     RDKit          3D

 35 36  0  0  0  0  0  0  0  0999 V2000
   13.7794   -0.1124   17.6923 N   0  0  0  0  0  0  0  0  0  0  0  0
   13.1749   -0.9157   16.7128 C   0  0  0  0  0  0  0  0  0  0  0  0
   13.2692   -2.3079   16.8988 C   0  0  0  0  0  0  0  0  0  0  0  0
   12.5315   -3.1963   16.1218 C   0  0  0  0  0  0  0  0  0  0  0  0
   11.6941   -2.7078   15.1314 C   0  0  0  0  0  0  0  0  0  0  0  0
   11.5863   -1.3322   14.9354 C   0  0  0  0  0  0  0  0  0  0  0  0
   12.3017   -0.4137   15.7236 C   0  0  0  0  0  0  0  0  0  0  0  0
   12.0417    1.0549   15.4178 C   0  0  0  0  0  0  0  0  0  0  0  0
   11.1531    1.3045   14.6886 O   0  0  0  0  0  0  0  0  0  0  0  0
   12.9793    1.9719   16.1634 N   0  0  0  0  0  0  0  0  0  0  0  0
   12.9965    3.4752   16.2799 C   0  0  0  0  0  0  0  0  0  0  0  0
   13.9540    4.0723   17.3056 C   0  0  0  0  0  0  0  0  0  0  0  0
   15.3649    3.9853   16.7530 C   0  0  0  0  0  0  0  0  0  0  0  0
   16.4382    4.3197   17.7858 C   0  0  0  0  0  0  0  0  0  0  0  0
   16.1789    3.7260   19.0460 O   0  0  0  0  0  0  0  0  0  0  0  0
   15.4997    2.5978   16.1472 C   0  0  0  0  0  0  0  0  0  0  0  0
   14.2261    2.2824   15.3338 C   0  0  0  0  0  0  0  0  0  0  0  0
   13.7511    0.8809   17.4590 H   0  0  0  0  0  0  0  0  0  0  0  0
   14.6664   -0.4483   18.0479 H   0  0  0  0  0  0  0  0  0  0  0  0
   13.8845   -2.7084   17.7018 H   0  0  0  0  0  0  0  0  0  0  0  0
   12.5968   -4.2644   16.3102 H   0  0  0  0  0  0  0  0  0  0  0  0
   11.1096   -3.3860   14.5153 H   0  0  0  0  0  0  0  0  0  0  0  0
   10.9141   -0.9708   14.1606 H   0  0  0  0  0  0  0  0  0  0  0  0
   12.8808    4.0481   15.3427 H   0  0  0  0  0  0  0  0  0  0  0  0
   11.9996    3.6486   16.7174 H   0  0  0  0  0  0  0  0  0  0  0  0
   13.6920    5.1173   17.5069 H   0  0  0  0  0  0  0  0  0  0  0  0
   13.8506    3.5220   18.2485 H   0  0  0  0  0  0  0  0  0  0  0  0
   15.4653    4.7068   15.9299 H   0  0  0  0  0  0  0  0  0  0  0  0
   16.4630    5.4028   17.9459 H   0  0  0  0  0  0  0  0  0  0  0  0
   17.4332    4.0153   17.4446 H   0  0  0  0  0  0  0  0  0  0  0  0
   16.2353    2.7611   18.9475 H   0  0  0  0  0  0  0  0  0  0  0  0
   15.6533    1.8415   16.9240 H   0  0  0  0  0  0  0  0  0  0  0  0
   16.3757    2.5621   15.4890 H   0  0  0  0  0  0  0  0  0  0  0  0
   14.4591    1.3107   14.8683 H   0  0  0  0  0  0  0  0  0  0  0  0
   14.0757    2.8974   14.4287 H   0  0  0  0  0  0  0  0  0  0  0  0
  1  2  1  0
  2  3  2  0
  3  4  1  0
  4  5  2  0
  5  6  1  0
  6  7  2  0
  7  8  1  0
  8  9  2  0
  8 10  1  0
 10 11  1  0
 11 12  1  0
 12 13  1  0
 13 14  1  0
 14 15  1  0
 13 16  1  0
 16 17  1  0
  7  2  1  0
 17 10  1  0
  1 18  1  0
  1 19  1  0
  3 20  1  0
  4 21  1  0
  5 22  1  0
  6 23  1  0
 11 24  1  0
 11 25  1  0
 12 26  1  0
 12 27  1  0
 13 28  1  0
 14 29  1  0
 14 30  1  0
 15 31  1  0
 16 32  1  0
 16 33  1  0
 17 34  1  0
 17 35  1  0
M  END
>  <Energy>  (382) 
123.76360141481544

>  <compound_id>  (382) 
3369

>  <target_id>  (382) 
1

>  <reference_id>  (382) 
55

>  <inspiration_ids>  (382) 
[113, 55]

>  <energy_score>  (382) 
24.632946798695087

>  <distance_score>  (382) 
1.0097214614996572

>  <path>  (382) 
/opt/xchem-fragalysis-2/maxwin/BulkDock/SCRATCH/505734/C3369-P55/C3369-P55.minimised.mol

>  <scratch_subdir>  (382) 
/opt/xchem-fragalysis-2/maxwin/BulkDock/SCRATCH/505734/C3369-P55

>  <fragmenstein_runtime>  (382) 
1.487452745437622

>  <fragmenstein_outcome>  (382) 
too moved

>  <fragmenstein_mode>  (382) 
expansion

>  <fragmenstein_error>  (382) 


$$$$
C3371-P113
     RDKit          3D

 52 55  0  0  0  0  0  0  0  0999 V2000
   17.5865   -2.5395   13.0260 O   0  0  0  0  0  0  0  0  0  0  0  0
   16.6190   -1.8716   12.7840 C   0  0  0  0  0  0  0  0  0  0  0  0
   16.4490   -1.2414   11.3977 C   0  0  0  0  0  0  0  0  0  0  0  0
   16.4723    0.2459   11.5217 C   0  0  0  0  0  0  0  0  0  0  0  0
   15.5370    1.2088   11.2120 C   0  0  0  0  0  0  0  0  0  0  0  0
   16.1235    2.4197   11.6185 C   0  0  0  0  0  0  0  0  0  0  0  0
   17.3273    2.2428   12.1669 N   0  0  0  0  0  0  0  0  0  0  0  0
   17.5326    0.9179   12.0727 N   0  0  0  0  0  0  0  0  0  0  0  0
   15.5346   -1.4378   13.6341 N   0  0  0  0  0  0  0  0  0  0  0  0
   15.2379   -1.7366   14.9596 C   0  0  0  0  0  0  0  0  0  0  0  0
   15.8771   -2.7614   15.6510 C   0  0  0  0  0  0  0  0  0  0  0  0
   15.5357   -3.0357   16.9864 C   0  0  0  0  0  0  0  0  0  0  0  0
   16.1653   -4.0546   17.7141 C   0  0  0  0  0  0  0  0  0  0  0  0
   15.8061   -4.2847   19.0372 C   0  0  0  0  0  0  0  0  0  0  0  0
   14.8279   -3.4819   19.5901 C   0  0  0  0  0  0  0  0  0  0  0  0
   14.2108   -2.4857   18.9192 N   0  0  0  0  0  0  0  0  0  0  0  0
   14.5515   -2.2689   17.6418 C   0  0  0  0  0  0  0  0  0  0  0  0
   13.9459   -1.2338   16.9546 C   0  0  0  0  0  0  0  0  0  0  0  0
   14.2865   -0.9561   15.6294 C   0  0  0  0  0  0  0  0  0  0  0  0
   13.7423    0.2770   14.9869 C   0  0  0  0  0  0  0  0  0  0  0  0
   13.2661    0.1880   13.8874 O   0  0  0  0  0  0  0  0  0  0  0  0
   13.9268    1.4089   15.8261 N   0  0  0  0  0  0  0  0  0  0  0  0
   13.4854    2.8399   15.6588 C   0  0  0  0  0  0  0  0  0  0  0  0
   13.7179    3.7641   16.8634 C   0  0  0  0  0  0  0  0  0  0  0  0
   15.2032    4.0806   16.9590 C   0  0  0  0  0  0  0  0  0  0  0  0
   15.6022    4.8081   18.2407 C   0  0  0  0  0  0  0  0  0  0  0  0
   15.2027    4.1140   19.4099 O   0  0  0  0  0  0  0  0  0  0  0  0
   15.9237    2.7580   16.7690 C   0  0  0  0  0  0  0  0  0  0  0  0
   15.3012    2.0313   15.5720 C   0  0  0  0  0  0  0  0  0  0  0  0
   15.5068   -1.5926   10.9619 H   0  0  0  0  0  0  0  0  0  0  0  0
   17.2631   -1.5807   10.7476 H   0  0  0  0  0  0  0  0  0  0  0  0
   14.5623    1.0605   10.7684 H   0  0  0  0  0  0  0  0  0  0  0  0
   15.7179    3.4209   11.5508 H   0  0  0  0  0  0  0  0  0  0  0  0
   18.4083    0.5372   12.4223 H   0  0  0  0  0  0  0  0  0  0  0  0
   14.9271   -0.8097   13.1058 H   0  0  0  0  0  0  0  0  0  0  0  0
   16.6307   -3.3687   15.1555 H   0  0  0  0  0  0  0  0  0  0  0  0
   16.9395   -4.6656   17.2559 H   0  0  0  0  0  0  0  0  0  0  0  0
   16.2799   -5.0658   19.6209 H   0  0  0  0  0  0  0  0  0  0  0  0
   14.5020   -3.6125   20.6189 H   0  0  0  0  0  0  0  0  0  0  0  0
   13.2237   -0.6084   17.4693 H   0  0  0  0  0  0  0  0  0  0  0  0
   13.6728    3.2932   14.6704 H   0  0  0  0  0  0  0  0  0  0  0  0
   12.3910    2.7189   15.6153 H   0  0  0  0  0  0  0  0  0  0  0  0
   13.3573    3.2697   17.7738 H   0  0  0  0  0  0  0  0  0  0  0  0
   13.1430    4.6893   16.7434 H   0  0  0  0  0  0  0  0  0  0  0  0
   15.4698    4.7333   16.1158 H   0  0  0  0  0  0  0  0  0  0  0  0
   15.1264    5.7940   18.2688 H   0  0  0  0  0  0  0  0  0  0  0  0
   16.6854    4.9644   18.2818 H   0  0  0  0  0  0  0  0  0  0  0  0
   15.7056    3.2845   19.4655 H   0  0  0  0  0  0  0  0  0  0  0  0
   15.8445    2.1213   17.6578 H   0  0  0  0  0  0  0  0  0  0  0  0
   16.9900    2.9352   16.5868 H   0  0  0  0  0  0  0  0  0  0  0  0
   15.4251    2.5408   14.6016 H   0  0  0  0  0  0  0  0  0  0  0  0
   15.9670    1.1656   15.4298 H   0  0  0  0  0  0  0  0  0  0  0  0
  1  2  2  0
  2  3  1  0
  3  4  1  0
  4  5  2  0
  5  6  1  0
  6  7  2  0
  7  8  1  0
  2  9  1  0
  9 10  1  0
 10 11  2  0
 11 12  1  0
 12 13  2  0
 13 14  1  0
 14 15  2  0
 15 16  1  0
 16 17  2  0
 17 18  1  0
 18 19  2  0
 19 20  1  0
 20 21  2  0
 20 22  1  0
 22 23  1  0
 23 24  1  0
 24 25  1  0
 25 26  1  0
 26 27  1  0
 25 28  1  0
 28 29  1  0
  8  4  1  0
 19 10  1  0
 29 22  1  0
 17 12  1  0
  3 30  1  0
  3 31  1  0
  5 32  1  0
  6 33  1  0
  8 34  1  0
  9 35  1  0
 11 36  1  0
 13 37  1  0
 14 38  1  0
 15 39  1  0
 18 40  1  0
 23 41  1  0
 23 42  1  0
 24 43  1  0
 24 44  1  0
 25 45  1  0
 26 46  1  0
 26 47  1  0
 27 48  1  0
 28 49  1  0
 28 50  1  0
 29 51  1  0
 29 52  1  0
M  END
>  <Energy>  (383) 
114.68376140600319

>  <compound_id>  (383) 
3371

>  <target_id>  (383) 
1

>  <reference_id>  (383) 
113

>  <inspiration_ids>  (383) 
[113, 61]

>  <energy_score>  (383) 
-15.52220147456552

>  <distance_score>  (383) 
2.8157795822565856

>  <path>  (383) 
/opt/xchem-fragalysis-2/maxwin/BulkDock/SCRATCH/505734/C3371-P113/C3371-P113.minimised.mol

>  <scratch_subdir>  (383) 
/opt/xchem-fragalysis-2/maxwin/BulkDock/SCRATCH/505734/C3371-P113

>  <fragmenstein_runtime>  (383) 
12.593212604522705

>  <fragmenstein_outcome>  (383) 
too moved

>  <fragmenstein_mode>  (383) 
expansion

>  <fragmenstein_error>  (383) 


$$$$
C3371-P61
     RDKit          3D

 52 55  0  0  0  0  0  0  0  0999 V2000
   17.7155   -2.9399   13.1609 O   0  0  0  0  0  0  0  0  0  0  0  0
   16.7918   -2.2432   12.8433 C   0  0  0  0  0  0  0  0  0  0  0  0
   16.7766   -1.5678   11.4689 C   0  0  0  0  0  0  0  0  0  0  0  0
   16.7971   -0.0851   11.6387 C   0  0  0  0  0  0  0  0  0  0  0  0
   15.9048    0.8955   11.2642 C   0  0  0  0  0  0  0  0  0  0  0  0
   16.4663    2.0909   11.7443 C   0  0  0  0  0  0  0  0  0  0  0  0
   17.6108    1.8878   12.4005 N   0  0  0  0  0  0  0  0  0  0  0  0
   17.8082    0.5621   12.3002 N   0  0  0  0  0  0  0  0  0  0  0  0
   15.6072   -1.8564   13.5728 N   0  0  0  0  0  0  0  0  0  0  0  0
   15.2255   -2.0987   14.8882 C   0  0  0  0  0  0  0  0  0  0  0  0
   15.7768   -3.1466   15.6221 C   0  0  0  0  0  0  0  0  0  0  0  0
   15.3573   -3.3838   16.9406 C   0  0  0  0  0  0  0  0  0  0  0  0
   15.9034   -4.4174   17.7142 C   0  0  0  0  0  0  0  0  0  0  0  0
   15.4638   -4.6134   19.0183 C   0  0  0  0  0  0  0  0  0  0  0  0
   14.4929   -3.7620   19.5066 C   0  0  0  0  0  0  0  0  0  0  0  0
   13.9599   -2.7489   18.7908 N   0  0  0  0  0  0  0  0  0  0  0  0
   14.3759   -2.5641   17.5316 C   0  0  0  0  0  0  0  0  0  0  0  0
   13.8530   -1.5127   16.8004 C   0  0  0  0  0  0  0  0  0  0  0  0
   14.2764   -1.2653   15.4930 C   0  0  0  0  0  0  0  0  0  0  0  0
   13.8205   -0.0199   14.8050 C   0  0  0  0  0  0  0  0  0  0  0  0
   13.4433   -0.1031   13.6669 O   0  0  0  0  0  0  0  0  0  0  0  0
   13.9530    1.1124   15.6559 N   0  0  0  0  0  0  0  0  0  0  0  0
   13.5589    2.5522   15.4462 C   0  0  0  0  0  0  0  0  0  0  0  0
   13.7080    3.4848   16.6584 C   0  0  0  0  0  0  0  0  0  0  0  0
   15.1862    3.7775   16.8685 C   0  0  0  0  0  0  0  0  0  0  0  0
   15.4948    4.5267   18.1625 C   0  0  0  0  0  0  0  0  0  0  0  0
   15.0134    3.8499   19.3107 O   0  0  0  0  0  0  0  0  0  0  0  0
   15.8885    2.4357   16.7640 C   0  0  0  0  0  0  0  0  0  0  0  0
   15.3578    1.7046   15.5253 C   0  0  0  0  0  0  0  0  0  0  0  0
   15.8853   -1.8958   10.9220 H   0  0  0  0  0  0  0  0  0  0  0  0
   17.6541   -1.8950   10.9001 H   0  0  0  0  0  0  0  0  0  0  0  0
   14.9750    0.7685   10.7269 H   0  0  0  0  0  0  0  0  0  0  0  0
   16.0815    3.0988   11.6565 H   0  0  0  0  0  0  0  0  0  0  0  0
   18.6447    0.1635   12.7190 H   0  0  0  0  0  0  0  0  0  0  0  0
   15.0773   -1.1833   13.0161 H   0  0  0  0  0  0  0  0  0  0  0  0
   16.5208   -3.7982   15.1687 H   0  0  0  0  0  0  0  0  0  0  0  0
   16.6742   -5.0674   17.3065 H   0  0  0  0  0  0  0  0  0  0  0  0
   15.8707   -5.4055   19.6368 H   0  0  0  0  0  0  0  0  0  0  0  0
   14.1034   -3.8642   20.5164 H   0  0  0  0  0  0  0  0  0  0  0  0
   13.1277   -0.8538   17.2666 H   0  0  0  0  0  0  0  0  0  0  0  0
   12.4698    2.4540   15.3109 H   0  0  0  0  0  0  0  0  0  0  0  0
   13.8395    2.9925   14.4740 H   0  0  0  0  0  0  0  0  0  0  0  0
   13.2669    3.0070   17.5419 H   0  0  0  0  0  0  0  0  0  0  0  0
   13.1610    4.4182   16.4829 H   0  0  0  0  0  0  0  0  0  0  0  0
   15.5327    4.4068   16.0367 H   0  0  0  0  0  0  0  0  0  0  0  0
   15.0198    5.5131   18.1411 H   0  0  0  0  0  0  0  0  0  0  0  0
   16.5728    4.6829   18.2772 H   0  0  0  0  0  0  0  0  0  0  0  0
   15.5382    3.0415   19.4347 H   0  0  0  0  0  0  0  0  0  0  0  0
   15.7137    1.8157   17.6511 H   0  0  0  0  0  0  0  0  0  0  0  0
   16.9708    2.5853   16.6757 H   0  0  0  0  0  0  0  0  0  0  0  0
   16.0145    0.8234   15.4513 H   0  0  0  0  0  0  0  0  0  0  0  0
   15.5770    2.2019   14.5665 H   0  0  0  0  0  0  0  0  0  0  0  0
  1  2  2  0
  2  3  1  0
  3  4  1  0
  4  5  2  0
  5  6  1  0
  6  7  2  0
  7  8  1  0
  2  9  1  0
  9 10  1  0
 10 11  2  0
 11 12  1  0
 12 13  2  0
 13 14  1  0
 14 15  2  0
 15 16  1  0
 16 17  2  0
 17 18  1  0
 18 19  2  0
 19 20  1  0
 20 21  2  0
 20 22  1  0
 22 23  1  0
 23 24  1  0
 24 25  1  0
 25 26  1  0
 26 27  1  0
 25 28  1  0
 28 29  1  0
  8  4  1  0
 19 10  1  0
 29 22  1  0
 17 12  1  0
  3 30  1  0
  3 31  1  0
  5 32  1  0
  6 33  1  0
  8 34  1  0
  9 35  1  0
 11 36  1  0
 13 37  1  0
 14 38  1  0
 15 39  1  0
 18 40  1  0
 23 41  1  0
 23 42  1  0
 24 43  1  0
 24 44  1  0
 25 45  1  0
 26 46  1  0
 26 47  1  0
 27 48  1  0
 28 49  1  0
 28 50  1  0
 29 51  1  0
 29 52  1  0
M  END
>  <Energy>  (384) 
114.40132310273289

>  <compound_id>  (384) 
3371

>  <target_id>  (384) 
1

>  <reference_id>  (384) 
61

>  <inspiration_ids>  (384) 
[113, 61]

>  <energy_score>  (384) 
-15.804639777834012

>  <distance_score>  (384) 
2.82073544718992

>  <path>  (384) 
/opt/xchem-fragalysis-2/maxwin/BulkDock/SCRATCH/505734/C3371-P61/C3371-P61.minimised.mol

>  <scratch_subdir>  (384) 
/opt/xchem-fragalysis-2/maxwin/BulkDock/SCRATCH/505734/C3371-P61

>  <fragmenstein_runtime>  (384) 
13.341579914093018

>  <fragmenstein_outcome>  (384) 
too moved

>  <fragmenstein_mode>  (384) 
expansion

>  <fragmenstein_error>  (384) 


$$$$
C3378-P113
     RDKit          3D

 35 36  0  0  0  0  0  0  0  0999 V2000
   11.3110    0.7256   13.4458 C   0  0  0  0  0  0  0  0  0  0  0  0
   11.3205    2.2091   13.7392 C   0  0  0  0  0  0  0  0  0  0  0  0
   10.6893    2.9839   13.1195 O   0  0  0  0  0  0  0  0  0  0  0  0
   12.2127    2.4138   14.9476 N   0  0  0  0  0  0  0  0  0  0  0  0
   12.4781    3.6531   15.7799 C   0  0  0  0  0  0  0  0  0  0  0  0
   13.2952    3.4571   17.0708 C   0  0  0  0  0  0  0  0  0  0  0  0
   14.6810    3.0622   16.7631 N   0  0  0  0  0  0  0  0  0  0  0  0
   15.5082    2.7325   17.8231 C   0  0  0  0  0  0  0  0  0  0  0  0
   15.5409    1.5974   18.5373 C   0  0  0  0  0  0  0  0  0  0  0  0
   14.6413    0.3692   18.3935 C   0  0  0  0  0  0  0  0  0  0  0  0
   15.2490   -0.8234   17.7843 N   0  0  0  0  0  0  0  0  0  0  0  0
   16.5586   -1.1978   17.9387 C   0  0  0  0  0  0  0  0  0  0  0  0
   16.8551   -2.2632   17.2333 N   0  0  0  0  0  0  0  0  0  0  0  0
   15.6845   -2.6340   16.6356 C   0  0  0  0  0  0  0  0  0  0  0  0
   14.6647   -1.7825   16.9866 C   0  0  0  0  0  0  0  0  0  0  0  0
   12.7301   -2.0598   16.3265 I   0  0  0  0  0  0  0  0  0  0  0  0
   14.7465    2.2609   15.5327 C   0  0  0  0  0  0  0  0  0  0  0  0
   13.6584    2.7051   14.5273 C   0  0  0  0  0  0  0  0  0  0  0  0
   11.2733    0.5822   12.3633 H   0  0  0  0  0  0  0  0  0  0  0  0
   10.4308    0.2748   13.9106 H   0  0  0  0  0  0  0  0  0  0  0  0
   12.2102    0.2297   13.8173 H   0  0  0  0  0  0  0  0  0  0  0  0
   12.6938    4.5813   15.2225 H   0  0  0  0  0  0  0  0  0  0  0  0
   11.4612    3.8825   16.1380 H   0  0  0  0  0  0  0  0  0  0  0  0
   12.8099    2.6894   17.6843 H   0  0  0  0  0  0  0  0  0  0  0  0
   13.2993    4.3909   17.6450 H   0  0  0  0  0  0  0  0  0  0  0  0
   16.1850    3.5509   18.0665 H   0  0  0  0  0  0  0  0  0  0  0  0
   16.2635    1.5420   19.3496 H   0  0  0  0  0  0  0  0  0  0  0  0
   14.3101    0.0551   19.3903 H   0  0  0  0  0  0  0  0  0  0  0  0
   13.7461    0.6040   17.8134 H   0  0  0  0  0  0  0  0  0  0  0  0
   17.2584   -0.6511   18.5573 H   0  0  0  0  0  0  0  0  0  0  0  0
   15.6449   -3.5062   15.9953 H   0  0  0  0  0  0  0  0  0  0  0  0
   14.6077    1.1966   15.7450 H   0  0  0  0  0  0  0  0  0  0  0  0
   15.7340    2.3823   15.0723 H   0  0  0  0  0  0  0  0  0  0  0  0
   13.8103    2.0293   13.6700 H   0  0  0  0  0  0  0  0  0  0  0  0
   13.8412    3.6791   14.0401 H   0  0  0  0  0  0  0  0  0  0  0  0
  1  2  1  0
  2  3  2  0
  2  4  1  0
  4  5  1  0
  5  6  1  0
  6  7  1  0
  7  8  1  0
  8  9  2  3
  9 10  1  0
 10 11  1  0
 11 12  1  0
 12 13  2  0
 13 14  1  0
 14 15  2  0
 15 16  1  0
  7 17  1  0
 17 18  1  0
 18  4  1  0
 15 11  1  0
  1 19  1  0
  1 20  1  0
  1 21  1  0
  5 22  1  0
  5 23  1  0
  6 24  1  0
  6 25  1  0
  8 26  1  0
  9 27  1  0
 10 28  1  0
 10 29  1  0
 12 30  1  0
 14 31  1  0
 17 32  1  0
 17 33  1  0
 18 34  1  0
 18 35  1  0
M  END
>  <Energy>  (385) 
154.75279914726394

>  <compound_id>  (385) 
3378

>  <target_id>  (385) 
1

>  <reference_id>  (385) 
113

>  <inspiration_ids>  (385) 
[113, 93]

>  <energy_score>  (385) 
56.442918002612295

>  <distance_score>  (385) 
2.3800290840262925

>  <path>  (385) 
/opt/xchem-fragalysis-2/maxwin/BulkDock/SCRATCH/505734/C3378-P113/C3378-P113.minimised.mol

>  <scratch_subdir>  (385) 
/opt/xchem-fragalysis-2/maxwin/BulkDock/SCRATCH/505734/C3378-P113

>  <fragmenstein_runtime>  (385) 
1.815340280532837

>  <fragmenstein_outcome>  (385) 
too moved

>  <fragmenstein_mode>  (385) 
expansion

>  <fragmenstein_error>  (385) 


$$$$
C3378-P93
     RDKit          3D

 35 36  0  0  0  0  0  0  0  0999 V2000
   11.1548    0.9859   13.5210 C   0  0  0  0  0  0  0  0  0  0  0  0
   11.2439    2.4591   13.8474 C   0  0  0  0  0  0  0  0  0  0  0  0
   10.6353    3.2773   13.2626 O   0  0  0  0  0  0  0  0  0  0  0  0
   12.1826    2.5934   15.0284 N   0  0  0  0  0  0  0  0  0  0  0  0
   12.5390    3.7993   15.8722 C   0  0  0  0  0  0  0  0  0  0  0  0
   13.3748    3.5266   17.1356 C   0  0  0  0  0  0  0  0  0  0  0  0
   14.7261    3.0648   16.7806 N   0  0  0  0  0  0  0  0  0  0  0  0
   15.5638    2.6773   17.8106 C   0  0  0  0  0  0  0  0  0  0  0  0
   15.5965    1.5107   18.4714 C   0  0  0  0  0  0  0  0  0  0  0  0
   14.6867    0.2943   18.2922 C   0  0  0  0  0  0  0  0  0  0  0  0
   15.2927   -0.9038   17.6916 N   0  0  0  0  0  0  0  0  0  0  0  0
   16.5900   -1.3005   17.8931 C   0  0  0  0  0  0  0  0  0  0  0  0
   16.8918   -2.3763   17.2065 N   0  0  0  0  0  0  0  0  0  0  0  0
   15.7367   -2.7315   16.5716 C   0  0  0  0  0  0  0  0  0  0  0  0
   14.7205   -1.8592   16.8797 C   0  0  0  0  0  0  0  0  0  0  0  0
   12.8136   -2.1331   16.1396 I   0  0  0  0  0  0  0  0  0  0  0  0
   14.7242    2.2997   15.5264 C   0  0  0  0  0  0  0  0  0  0  0  0
   13.6278    2.8168   14.5662 C   0  0  0  0  0  0  0  0  0  0  0  0
   10.1950    0.6014   13.8742 H   0  0  0  0  0  0  0  0  0  0  0  0
   11.9601    0.4112   13.9835 H   0  0  0  0  0  0  0  0  0  0  0  0
   11.2307    0.8644   12.4381 H   0  0  0  0  0  0  0  0  0  0  0  0
   11.5467    4.0792   16.2618 H   0  0  0  0  0  0  0  0  0  0  0  0
   12.7936    4.7255   15.3282 H   0  0  0  0  0  0  0  0  0  0  0  0
   12.8650    2.7704   17.7457 H   0  0  0  0  0  0  0  0  0  0  0  0
   13.4449    4.4445   17.7310 H   0  0  0  0  0  0  0  0  0  0  0  0
   16.2455    3.4803   18.0900 H   0  0  0  0  0  0  0  0  0  0  0  0
   16.3274    1.4184   19.2733 H   0  0  0  0  0  0  0  0  0  0  0  0
   14.3359   -0.0234   19.2810 H   0  0  0  0  0  0  0  0  0  0  0  0
   13.8041    0.5434   17.6987 H   0  0  0  0  0  0  0  0  0  0  0  0
   17.2779   -0.7633   18.5332 H   0  0  0  0  0  0  0  0  0  0  0  0
   15.6993   -3.6086   15.9365 H   0  0  0  0  0  0  0  0  0  0  0  0
   14.5487    1.2355   15.7087 H   0  0  0  0  0  0  0  0  0  0  0  0
   15.7025    2.3953   15.0409 H   0  0  0  0  0  0  0  0  0  0  0  0
   13.8450    3.7883   14.0879 H   0  0  0  0  0  0  0  0  0  0  0  0
   13.7160    2.1489   13.6937 H   0  0  0  0  0  0  0  0  0  0  0  0
  1  2  1  0
  2  3  2  0
  2  4  1  0
  4  5  1  0
  5  6  1  0
  6  7  1  0
  7  8  1  0
  8  9  2  3
  9 10  1  0
 10 11  1  0
 11 12  1  0
 12 13  2  0
 13 14  1  0
 14 15  2  0
 15 16  1  0
  7 17  1  0
 17 18  1  0
 18  4  1  0
 15 11  1  0
  1 19  1  0
  1 20  1  0
  1 21  1  0
  5 22  1  0
  5 23  1  0
  6 24  1  0
  6 25  1  0
  8 26  1  0
  9 27  1  0
 10 28  1  0
 10 29  1  0
 12 30  1  0
 14 31  1  0
 17 32  1  0
 17 33  1  0
 18 34  1  0
 18 35  1  0
M  END
>  <Energy>  (386) 
155.10288071944331

>  <compound_id>  (386) 
3378

>  <target_id>  (386) 
1

>  <reference_id>  (386) 
93

>  <inspiration_ids>  (386) 
[113, 93]

>  <energy_score>  (386) 
56.79299957479054

>  <distance_score>  (386) 
2.22887478633075

>  <path>  (386) 
/opt/xchem-fragalysis-2/maxwin/BulkDock/SCRATCH/505734/C3378-P93/C3378-P93.minimised.mol

>  <scratch_subdir>  (386) 
/opt/xchem-fragalysis-2/maxwin/BulkDock/SCRATCH/505734/C3378-P93

>  <fragmenstein_runtime>  (386) 
2.0518722534179688

>  <fragmenstein_outcome>  (386) 
too moved

>  <fragmenstein_mode>  (386) 
expansion

>  <fragmenstein_error>  (386) 


$$$$
C3380-P113
     RDKit          3D

 27 28  0  0  0  0  0  0  0  0999 V2000
   13.3586   -1.3261   16.4537 C   0  0  0  0  0  0  0  0  0  0  0  0
   12.4224   -2.5105   16.2908 C   0  0  0  0  0  0  0  0  0  0  0  0
   11.3449   -2.3376   15.2080 C   0  0  0  0  0  0  0  0  0  0  0  0
   10.5158   -1.0697   15.4421 C   0  0  0  0  0  0  0  0  0  0  0  0
    9.6643   -1.0029   16.2362 O   0  0  0  0  0  0  0  0  0  0  0  0
   11.1151    0.0161   14.5255 N   0  0  0  0  0  0  0  0  0  0  0  0
   10.8590    1.4280   14.4608 C   0  0  0  0  0  0  0  0  0  0  0  0
   12.0768    1.9950   15.1383 C   0  0  0  0  0  0  0  0  0  0  0  0
   13.2769    1.9237   14.5966 N   0  0  0  0  0  0  0  0  0  0  0  0
   14.0473    2.3727   15.6004 C   0  0  0  0  0  0  0  0  0  0  0  0
   15.2788    2.5497   16.0569 C   0  0  0  0  0  0  0  0  0  0  0  0
   15.3586    3.0420   17.3607 N   0  0  0  0  0  0  0  0  0  0  0  0
   14.1290    3.1691   17.7608 C   0  0  0  0  0  0  0  0  0  0  0  0
   13.2237    2.7287   16.7046 C   0  0  0  0  0  0  0  0  0  0  0  0
   11.9761    2.5133   16.4450 N   0  0  0  0  0  0  0  0  0  0  0  0
   14.1537   -1.5719   17.1652 H   0  0  0  0  0  0  0  0  0  0  0  0
   13.8288   -1.0628   15.5015 H   0  0  0  0  0  0  0  0  0  0  0  0
   12.8318   -0.4518   16.8440 H   0  0  0  0  0  0  0  0  0  0  0  0
   13.0116   -3.4018   16.0724 H   0  0  0  0  0  0  0  0  0  0  0  0
   11.9596   -2.7108   17.2532 H   0  0  0  0  0  0  0  0  0  0  0  0
   11.8081   -2.3377   14.2158 H   0  0  0  0  0  0  0  0  0  0  0  0
   10.6640   -3.1947   15.2143 H   0  0  0  0  0  0  0  0  0  0  0  0
   11.7883   -0.4064   13.8957 H   0  0  0  0  0  0  0  0  0  0  0  0
    9.9574    1.6742   15.0228 H   0  0  0  0  0  0  0  0  0  0  0  0
   10.8058    1.7419   13.4173 H   0  0  0  0  0  0  0  0  0  0  0  0
   16.1838    2.3262   15.5068 H   0  0  0  0  0  0  0  0  0  0  0  0
   13.7390    3.5275   18.7218 H   0  0  0  0  0  0  0  0  0  0  0  0
  1  2  1  0
  2  3  1  0
  3  4  1  0
  4  5  2  0
  4  6  1  0
  6  7  1  0
  7  8  1  0
  8  9  2  0
  9 10  1  0
 10 11  2  0
 11 12  1  0
 12 13  2  0
 13 14  1  0
 14 15  2  0
 15  8  1  0
 14 10  1  0
  1 16  1  0
  1 17  1  0
  1 18  1  0
  2 19  1  0
  2 20  1  0
  3 21  1  0
  3 22  1  0
  6 23  1  0
  7 24  1  0
  7 25  1  0
 11 26  1  0
 13 27  1  0
M  END
>  <Energy>  (387) 
100.02689683832007

>  <compound_id>  (387) 
3380

>  <target_id>  (387) 
1

>  <reference_id>  (387) 
113

>  <inspiration_ids>  (387) 
[113, 98]

>  <energy_score>  (387) 
-5.029472990318652

>  <distance_score>  (387) 
1.9643977993537929

>  <path>  (387) 
/opt/xchem-fragalysis-2/maxwin/BulkDock/SCRATCH/505734/C3380-P113/C3380-P113.minimised.mol

>  <scratch_subdir>  (387) 
/opt/xchem-fragalysis-2/maxwin/BulkDock/SCRATCH/505734/C3380-P113

>  <fragmenstein_runtime>  (387) 
2.367002010345459

>  <fragmenstein_outcome>  (387) 
too moved

>  <fragmenstein_mode>  (387) 
expansion

>  <fragmenstein_error>  (387) 


$$$$
C3380-P98
     RDKit          3D

 27 28  0  0  0  0  0  0  0  0999 V2000
   13.2524   -1.6733   16.7073 C   0  0  0  0  0  0  0  0  0  0  0  0
   12.8692   -2.1877   15.3402 C   0  0  0  0  0  0  0  0  0  0  0  0
   11.3653   -2.3094   15.0682 C   0  0  0  0  0  0  0  0  0  0  0  0
   10.5674   -1.0304   15.3484 C   0  0  0  0  0  0  0  0  0  0  0  0
    9.7573   -0.9669   16.1837 O   0  0  0  0  0  0  0  0  0  0  0  0
   11.1290    0.0585   14.4202 N   0  0  0  0  0  0  0  0  0  0  0  0
   10.8833    1.4736   14.3858 C   0  0  0  0  0  0  0  0  0  0  0  0
   12.1183    2.0012   15.0710 C   0  0  0  0  0  0  0  0  0  0  0  0
   13.3119    1.8983   14.5191 N   0  0  0  0  0  0  0  0  0  0  0  0
   14.1055    2.3229   15.5136 C   0  0  0  0  0  0  0  0  0  0  0  0
   15.3467    2.4702   15.9546 C   0  0  0  0  0  0  0  0  0  0  0  0
   15.4548    2.9616   17.2566 N   0  0  0  0  0  0  0  0  0  0  0  0
   14.2345    3.1197   17.6700 C   0  0  0  0  0  0  0  0  0  0  0  0
   13.3044    2.6996   16.6263 C   0  0  0  0  0  0  0  0  0  0  0  0
   12.0473    2.5150   16.3861 N   0  0  0  0  0  0  0  0  0  0  0  0
   14.3379   -1.5431   16.7698 H   0  0  0  0  0  0  0  0  0  0  0  0
   12.7908   -0.7096   16.9274 H   0  0  0  0  0  0  0  0  0  0  0  0
   12.9722   -2.4135   17.4587 H   0  0  0  0  0  0  0  0  0  0  0  0
   13.3372   -1.5512   14.5810 H   0  0  0  0  0  0  0  0  0  0  0  0
   13.3139   -3.1777   15.2294 H   0  0  0  0  0  0  0  0  0  0  0  0
   11.2079   -2.6148   14.0300 H   0  0  0  0  0  0  0  0  0  0  0  0
   10.9581   -3.1114   15.6904 H   0  0  0  0  0  0  0  0  0  0  0  0
   11.7665   -0.3618   13.7525 H   0  0  0  0  0  0  0  0  0  0  0  0
    9.9841    1.7167   14.9535 H   0  0  0  0  0  0  0  0  0  0  0  0
   10.8313    1.8102   13.3492 H   0  0  0  0  0  0  0  0  0  0  0  0
   16.2391    2.2271   15.3919 H   0  0  0  0  0  0  0  0  0  0  0  0
   13.8672    3.4902   18.6348 H   0  0  0  0  0  0  0  0  0  0  0  0
  1  2  1  0
  2  3  1  0
  3  4  1  0
  4  5  2  0
  4  6  1  0
  6  7  1  0
  7  8  1  0
  8  9  2  0
  9 10  1  0
 10 11  2  0
 11 12  1  0
 12 13  2  0
 13 14  1  0
 14 15  2  0
 15  8  1  0
 14 10  1  0
  1 16  1  0
  1 17  1  0
  1 18  1  0
  2 19  1  0
  2 20  1  0
  3 21  1  0
  3 22  1  0
  6 23  1  0
  7 24  1  0
  7 25  1  0
 11 26  1  0
 13 27  1  0
M  END
>  <Energy>  (388) 
99.312381966822755

>  <compound_id>  (388) 
3380

>  <target_id>  (388) 
1

>  <reference_id>  (388) 
98

>  <inspiration_ids>  (388) 
[113, 98]

>  <energy_score>  (388) 
-5.7439878618161515

>  <distance_score>  (388) 
2.0624740954491028

>  <path>  (388) 
/opt/xchem-fragalysis-2/maxwin/BulkDock/SCRATCH/505734/C3380-P98/C3380-P98.minimised.mol

>  <scratch_subdir>  (388) 
/opt/xchem-fragalysis-2/maxwin/BulkDock/SCRATCH/505734/C3380-P98

>  <fragmenstein_runtime>  (388) 
2.849825620651245

>  <fragmenstein_outcome>  (388) 
too moved

>  <fragmenstein_mode>  (388) 
expansion

>  <fragmenstein_error>  (388) 


$$$$
C3385-P113
     RDKit          3D

 25 25  0  0  0  0  0  0  0  0999 V2000
   16.2815   -2.4714   20.5448 C   0  0  0  0  0  0  0  0  0  0  0  0
   15.9559   -1.0344   20.2959 N   0  0  0  0  0  0  0  0  0  0  0  0
   14.9195   -1.3540   21.3455 C   0  0  0  0  0  0  0  0  0  0  0  0
   15.3258   -0.3565   19.0881 C   0  0  0  0  0  0  0  0  0  0  0  0
   14.8763   -0.8197   18.1029 O   0  0  0  0  0  0  0  0  0  0  0  0
   15.4542    1.1701   19.3253 C   0  0  0  0  0  0  0  0  0  0  0  0
   14.4102    1.9710   18.7777 O   0  0  0  0  0  0  0  0  0  0  0  0
   14.4488    2.1119   17.4462 C   0  0  0  0  0  0  0  0  0  0  0  0
   15.1664    2.9296   16.5980 C   0  0  0  0  0  0  0  0  0  0  0  0
   16.4762    4.3914   17.1884 I   0  0  0  0  0  0  0  0  0  0  0  0
   14.9401    2.6424   15.2745 N   0  0  0  0  0  0  0  0  0  0  0  0
   14.0135    1.7165   15.2839 C   0  0  0  0  0  0  0  0  0  0  0  0
   13.4622    1.1097   14.2110 N   0  0  0  0  0  0  0  0  0  0  0  0
   13.6412    1.4319   16.5712 N   0  0  0  0  0  0  0  0  0  0  0  0
   12.6073    0.5843   16.8896 F   0  0  0  0  0  0  0  0  0  0  0  0
   17.1116   -2.6551   19.8462 H   0  0  0  0  0  0  0  0  0  0  0  0
   15.5251   -3.1922   20.1972 H   0  0  0  0  0  0  0  0  0  0  0  0
   16.7238   -2.6915   21.5277 H   0  0  0  0  0  0  0  0  0  0  0  0
   15.3208   -1.5745   22.3465 H   0  0  0  0  0  0  0  0  0  0  0  0
   14.1277   -2.0400   21.0074 H   0  0  0  0  0  0  0  0  0  0  0  0
   14.3749   -0.4102   21.4968 H   0  0  0  0  0  0  0  0  0  0  0  0
   16.4330    1.4855   18.9431 H   0  0  0  0  0  0  0  0  0  0  0  0
   15.4589    1.3711   20.4017 H   0  0  0  0  0  0  0  0  0  0  0  0
   13.1056    0.1655   14.3373 H   0  0  0  0  0  0  0  0  0  0  0  0
   13.9996    1.2018   13.3526 H   0  0  0  0  0  0  0  0  0  0  0  0
  1  2  1  0
  2  3  1  0
  2  4  1  0
  4  5  2  0
  4  6  1  0
  6  7  1  0
  7  8  1  0
  8  9  2  0
  9 10  1  0
  9 11  1  0
 11 12  2  0
 12 13  1  0
 12 14  1  0
 14 15  1  0
 14  8  1  0
  1 16  1  0
  1 17  1  0
  1 18  1  0
  3 19  1  0
  3 20  1  0
  3 21  1  0
  6 22  1  0
  6 23  1  0
 13 24  1  0
 13 25  1  0
M  END
>  <Energy>  (389) 
130.16454234636706

>  <compound_id>  (389) 
3385

>  <target_id>  (389) 
1

>  <reference_id>  (389) 
113

>  <inspiration_ids>  (389) 
[113, 117]

>  <energy_score>  (389) 
45.422352699838555

>  <distance_score>  (389) 
2.713665724209368

>  <path>  (389) 
/opt/xchem-fragalysis-2/maxwin/BulkDock/SCRATCH/505734/C3385-P113/C3385-P113.minimised.mol

>  <scratch_subdir>  (389) 
/opt/xchem-fragalysis-2/maxwin/BulkDock/SCRATCH/505734/C3385-P113

>  <fragmenstein_runtime>  (389) 
5.556853294372559

>  <fragmenstein_outcome>  (389) 
too moved

>  <fragmenstein_mode>  (389) 
expansion

>  <fragmenstein_error>  (389) 


$$$$
C3385-P117
     RDKit          3D

 25 25  0  0  0  0  0  0  0  0999 V2000
   17.0363   -2.5712   20.1543 C   0  0  0  0  0  0  0  0  0  0  0  0
   16.1970   -1.3384   20.0748 N   0  0  0  0  0  0  0  0  0  0  0  0
   15.1340   -2.3500   20.4233 C   0  0  0  0  0  0  0  0  0  0  0  0
   15.7840   -0.4957   18.8743 C   0  0  0  0  0  0  0  0  0  0  0  0
   15.9662   -0.6685   17.7232 O   0  0  0  0  0  0  0  0  0  0  0  0
   15.0079    0.7229   19.4404 C   0  0  0  0  0  0  0  0  0  0  0  0
   15.1444    1.9715   18.7814 O   0  0  0  0  0  0  0  0  0  0  0  0
   14.7270    2.0881   17.5083 C   0  0  0  0  0  0  0  0  0  0  0  0
   15.0418    3.0462   16.5623 C   0  0  0  0  0  0  0  0  0  0  0  0
   16.2704    4.6530   16.9050 I   0  0  0  0  0  0  0  0  0  0  0  0
   14.5075    2.7806   15.3266 N   0  0  0  0  0  0  0  0  0  0  0  0
   13.8075    1.6894   15.4943 C   0  0  0  0  0  0  0  0  0  0  0  0
   13.0994    1.0286   14.5514 N   0  0  0  0  0  0  0  0  0  0  0  0
   13.8664    1.2836   16.8007 N   0  0  0  0  0  0  0  0  0  0  0  0
   13.1000    0.2531   17.2900 F   0  0  0  0  0  0  0  0  0  0  0  0
   18.0377   -2.1999   19.8898 H   0  0  0  0  0  0  0  0  0  0  0  0
   16.8526   -3.3198   19.3679 H   0  0  0  0  0  0  0  0  0  0  0  0
   17.1751   -2.9782   21.1669 H   0  0  0  0  0  0  0  0  0  0  0  0
   15.2302   -2.8215   21.4136 H   0  0  0  0  0  0  0  0  0  0  0  0
   14.8820   -3.0446   19.6061 H   0  0  0  0  0  0  0  0  0  0  0  0
   14.2168   -1.7547   20.5258 H   0  0  0  0  0  0  0  0  0  0  0  0
   13.9535    0.4482   19.5082 H   0  0  0  0  0  0  0  0  0  0  0  0
   15.3457    0.8946   20.4692 H   0  0  0  0  0  0  0  0  0  0  0  0
   13.3517    1.2835   13.5989 H   0  0  0  0  0  0  0  0  0  0  0  0
   13.0124    0.0213   14.6576 H   0  0  0  0  0  0  0  0  0  0  0  0
  1  2  1  0
  2  3  1  0
  2  4  1  0
  4  5  2  0
  4  6  1  0
  6  7  1  0
  7  8  1  0
  8  9  2  0
  9 10  1  0
  9 11  1  0
 11 12  2  0
 12 13  1  0
 12 14  1  0
 14 15  1  0
 14  8  1  0
  1 16  1  0
  1 17  1  0
  1 18  1  0
  3 19  1  0
  3 20  1  0
  3 21  1  0
  6 22  1  0
  6 23  1  0
 13 24  1  0
 13 25  1  0
M  END
>  <Energy>  (390) 
129.20674278528907

>  <compound_id>  (390) 
3385

>  <target_id>  (390) 
1

>  <reference_id>  (390) 
117

>  <inspiration_ids>  (390) 
[113, 117]

>  <energy_score>  (390) 
44.46455313876112

>  <distance_score>  (390) 
2.4660798473266374

>  <path>  (390) 
/opt/xchem-fragalysis-2/maxwin/BulkDock/SCRATCH/505734/C3385-P117/C3385-P117.minimised.mol

>  <scratch_subdir>  (390) 
/opt/xchem-fragalysis-2/maxwin/BulkDock/SCRATCH/505734/C3385-P117

>  <fragmenstein_runtime>  (390) 
7.813828468322754

>  <fragmenstein_outcome>  (390) 
too moved

>  <fragmenstein_mode>  (390) 
expansion

>  <fragmenstein_error>  (390) 


$$$$
C3387-P113
     RDKit          3D

 22 22  0  0  0  0  0  0  0  0999 V2000
   11.3821   -2.8471   14.7548 C   0  0  0  0  0  0  0  0  0  0  0  0
   12.4243   -1.4078   14.7635 S   0  0  0  0  0  0  0  0  0  0  0  0
   13.6930   -1.7719   15.3589 O   0  0  0  0  0  0  0  0  0  0  0  0
   12.3504   -0.7828   13.4612 O   0  0  0  0  0  0  0  0  0  0  0  0
   11.6227   -0.3497   15.9136 C   0  0  0  0  0  0  0  0  0  0  0  0
   11.7171    1.1206   15.5465 C   0  0  0  0  0  0  0  0  0  0  0  0
   10.5996    1.7322   16.2337 O   0  0  0  0  0  0  0  0  0  0  0  0
   12.9214    1.8581   15.8951 N   0  0  0  0  0  0  0  0  0  0  0  0
   14.0463    1.3941   16.5212 C   0  0  0  0  0  0  0  0  0  0  0  0
   14.9088    2.3593   16.7615 N   0  0  0  0  0  0  0  0  0  0  0  0
   14.3469    3.4900   16.2372 C   0  0  0  0  0  0  0  0  0  0  0  0
   13.1342    3.1996   15.6625 C   0  0  0  0  0  0  0  0  0  0  0  0
   11.9324    4.5782   14.6808 I   0  0  0  0  0  0  0  0  0  0  0  0
   10.3428   -2.5363   14.6436 H   0  0  0  0  0  0  0  0  0  0  0  0
   11.5196   -3.3896   15.6914 H   0  0  0  0  0  0  0  0  0  0  0  0
   11.6625   -3.4625   13.9000 H   0  0  0  0  0  0  0  0  0  0  0  0
   10.5671   -0.6446   15.9260 H   0  0  0  0  0  0  0  0  0  0  0  0
   12.0256   -0.5708   16.9040 H   0  0  0  0  0  0  0  0  0  0  0  0
   11.5460    1.2804   14.4773 H   0  0  0  0  0  0  0  0  0  0  0  0
   10.7289    2.6993   16.2012 H   0  0  0  0  0  0  0  0  0  0  0  0
   14.2032    0.3605   16.8025 H   0  0  0  0  0  0  0  0  0  0  0  0
   14.8591    4.4424   16.2877 H   0  0  0  0  0  0  0  0  0  0  0  0
  1  2  1  0
  2  3  2  0
  2  4  2  0
  2  5  1  0
  5  6  1  0
  6  7  1  0
  6  8  1  0
  8  9  1  0
  9 10  2  0
 10 11  1  0
 11 12  2  0
 12 13  1  0
 12  8  1  0
  1 14  1  0
  1 15  1  0
  1 16  1  0
  5 17  1  0
  5 18  1  0
  6 19  1  0
  7 20  1  0
  9 21  1  0
 11 22  1  0
M  END
>  <Energy>  (391) 
-11.680292191709412

>  <compound_id>  (391) 
3387

>  <target_id>  (391) 
1

>  <reference_id>  (391) 
113

>  <inspiration_ids>  (391) 
[113, 122]

>  <energy_score>  (391) 
-23.186245981443903

>  <distance_score>  (391) 
1.145468934510017

>  <path>  (391) 
/opt/xchem-fragalysis-2/maxwin/BulkDock/SCRATCH/505734/C3387-P113/C3387-P113.minimised.mol

>  <scratch_subdir>  (391) 
/opt/xchem-fragalysis-2/maxwin/BulkDock/SCRATCH/505734/C3387-P113

>  <fragmenstein_runtime>  (391) 
1.802915096282959

>  <fragmenstein_outcome>  (391) 
too moved

>  <fragmenstein_mode>  (391) 
expansion

>  <fragmenstein_error>  (391) 


$$$$
C3387-P122
     RDKit          3D

 22 22  0  0  0  0  0  0  0  0999 V2000
   11.5332   -2.9429   14.7899 C   0  0  0  0  0  0  0  0  0  0  0  0
   12.5639   -1.4957   14.7949 S   0  0  0  0  0  0  0  0  0  0  0  0
   13.8010   -1.8357   15.4683 O   0  0  0  0  0  0  0  0  0  0  0  0
   12.5678   -0.9137   13.4731 O   0  0  0  0  0  0  0  0  0  0  0  0
   11.6997   -0.4056   15.8593 C   0  0  0  0  0  0  0  0  0  0  0  0
   11.7643    1.0518   15.4434 C   0  0  0  0  0  0  0  0  0  0  0  0
   10.6126    1.6513   16.0856 O   0  0  0  0  0  0  0  0  0  0  0  0
   12.9344    1.8331   15.8162 N   0  0  0  0  0  0  0  0  0  0  0  0
   14.0608    1.4087   16.4688 C   0  0  0  0  0  0  0  0  0  0  0  0
   14.8820    2.4030   16.7346 N   0  0  0  0  0  0  0  0  0  0  0  0
   14.2928    3.5135   16.1973 C   0  0  0  0  0  0  0  0  0  0  0  0
   13.1063    3.1816   15.5906 C   0  0  0  0  0  0  0  0  0  0  0  0
   11.8872    4.5191   14.5735 I   0  0  0  0  0  0  0  0  0  0  0  0
   11.7499   -3.5361   15.6798 H   0  0  0  0  0  0  0  0  0  0  0  0
   11.7474   -3.5025   13.8805 H   0  0  0  0  0  0  0  0  0  0  0  0
   10.4848   -2.6483   14.7868 H   0  0  0  0  0  0  0  0  0  0  0  0
   10.6521   -0.7255   15.8594 H   0  0  0  0  0  0  0  0  0  0  0  0
   12.0893   -0.5823   16.8620 H   0  0  0  0  0  0  0  0  0  0  0  0
   11.6246    1.1735   14.3645 H   0  0  0  0  0  0  0  0  0  0  0  0
   10.6350    2.6027   15.8701 H   0  0  0  0  0  0  0  0  0  0  0  0
   14.2481    0.3806   16.7510 H   0  0  0  0  0  0  0  0  0  0  0  0
   14.7688    4.4836   16.2609 H   0  0  0  0  0  0  0  0  0  0  0  0
  1  2  1  0
  2  3  2  0
  2  4  2  0
  2  5  1  0
  5  6  1  0
  6  7  1  0
  6  8  1  0
  8  9  1  0
  9 10  2  0
 10 11  1  0
 11 12  2  0
 12 13  1  0
 12  8  1  0
  1 14  1  0
  1 15  1  0
  1 16  1  0
  5 17  1  0
  5 18  1  0
  6 19  1  0
  7 20  1  0
  9 21  1  0
 11 22  1  0
M  END
>  <Energy>  (392) 
-10.561194538327632

>  <compound_id>  (392) 
3387

>  <target_id>  (392) 
1

>  <reference_id>  (392) 
122

>  <inspiration_ids>  (392) 
[113, 122]

>  <energy_score>  (392) 
-22.06714832806162

>  <distance_score>  (392) 
0.9302350126271145

>  <path>  (392) 
/opt/xchem-fragalysis-2/maxwin/BulkDock/SCRATCH/505734/C3387-P122/C3387-P122.minimised.mol

>  <scratch_subdir>  (392) 
/opt/xchem-fragalysis-2/maxwin/BulkDock/SCRATCH/505734/C3387-P122

>  <fragmenstein_runtime>  (392) 
1.8254666328430176

>  <fragmenstein_outcome>  (392) 
acceptable

>  <fragmenstein_mode>  (392) 
expansion

>  <fragmenstein_error>  (392) 


$$$$
C3391-P114
     RDKit          3D

 38 38  0  0  0  0  0  0  0  0999 V2000
   12.5061    1.7078   12.6895 C   0  0  0  0  0  0  0  0  0  0  0  0
   12.9142    0.5800   11.9271 O   0  0  0  0  0  0  0  0  0  0  0  0
   13.9928   -0.1707   12.5071 C   0  0  0  0  0  0  0  0  0  0  0  0
   13.6294   -0.8509   13.8521 C   0  0  0  0  0  0  0  0  0  0  0  0
   12.3955   -1.7267   13.9949 C   0  0  0  0  0  0  0  0  0  0  0  0
   12.4870   -2.5651   15.1940 N   0  0  0  0  0  0  0  0  0  0  0  0
   12.5801   -1.8687   16.4400 C   0  0  0  0  0  0  0  0  0  0  0  0
   13.9430   -1.8731   16.8967 N   0  0  0  0  0  0  0  0  0  0  0  0
   14.7133   -1.0953   11.4068 C   0  0  0  0  0  0  0  0  0  0  0  0
   14.9182   -2.5631   11.7624 C   0  0  0  0  0  0  0  0  0  0  0  0
   16.0227   -0.5756   10.9387 N   0  0  0  0  0  0  0  0  0  0  0  0
   16.8347   -0.1923   11.9487 C   0  0  0  0  0  0  0  0  0  0  0  0
   16.7594   -0.6851   13.1626 N   0  0  0  0  0  0  0  0  0  0  0  0
   17.0216    0.3395   14.0415 C   0  0  0  0  0  0  0  0  0  0  0  0
   16.5534    0.2135   15.4365 C   0  0  0  0  0  0  0  0  0  0  0  0
   17.5483    1.4793   13.5889 N   0  0  0  0  0  0  0  0  0  0  0  0
   17.7241    1.2878   11.9321 S   0  0  0  0  0  0  0  0  0  0  0  0
   12.0495    1.3989   13.6332 H   0  0  0  0  0  0  0  0  0  0  0  0
   13.3480    2.3815   12.8747 H   0  0  0  0  0  0  0  0  0  0  0  0
   11.7518    2.2497   12.1119 H   0  0  0  0  0  0  0  0  0  0  0  0
   14.7001    0.6162   12.7726 H   0  0  0  0  0  0  0  0  0  0  0  0
   13.5426   -0.0497   14.5972 H   0  0  0  0  0  0  0  0  0  0  0  0
   14.5067   -1.4335   14.1437 H   0  0  0  0  0  0  0  0  0  0  0  0
   12.2744   -2.3833   13.1339 H   0  0  0  0  0  0  0  0  0  0  0  0
   11.4980   -1.1019   14.0449 H   0  0  0  0  0  0  0  0  0  0  0  0
   13.2201   -3.2615   15.1246 H   0  0  0  0  0  0  0  0  0  0  0  0
   12.0071   -2.4426   17.1596 H   0  0  0  0  0  0  0  0  0  0  0  0
   12.1642   -0.8568   16.4106 H   0  0  0  0  0  0  0  0  0  0  0  0
   14.1660   -2.8129   17.2248 H   0  0  0  0  0  0  0  0  0  0  0  0
   14.5618   -1.7074   16.1146 H   0  0  0  0  0  0  0  0  0  0  0  0
   14.0931   -1.0875   10.5238 H   0  0  0  0  0  0  0  0  0  0  0  0
   13.9711   -3.0542   11.9556 H   0  0  0  0  0  0  0  0  0  0  0  0
   15.3952   -3.0882   10.9283 H   0  0  0  0  0  0  0  0  0  0  0  0
   15.5572   -2.7140   12.6353 H   0  0  0  0  0  0  0  0  0  0  0  0
   15.9102    0.1173   10.2041 H   0  0  0  0  0  0  0  0  0  0  0  0
   15.5559    0.6435   15.5538 H   0  0  0  0  0  0  0  0  0  0  0  0
   17.2292    0.7383   16.1201 H   0  0  0  0  0  0  0  0  0  0  0  0
   16.5328   -0.8360   15.7415 H   0  0  0  0  0  0  0  0  0  0  0  0
  1  2  1  0
  2  3  1  0
  3  4  1  0
  4  5  1  0
  5  6  1  0
  6  7  1  0
  7  8  1  0
  3  9  1  0
  9 10  1  0
  9 11  1  0
 11 12  1  0
 12 13  2  0
 13 14  1  0
 14 15  1  0
 14 16  2  0
 16 17  1  0
 17 12  1  0
  1 18  1  0
  1 19  1  0
  1 20  1  0
  3 21  1  0
  4 22  1  0
  4 23  1  0
  5 24  1  0
  5 25  1  0
  6 26  1  0
  7 27  1  0
  7 28  1  0
  8 29  1  0
  8 30  1  0
  9 31  1  0
 10 32  1  0
 10 33  1  0
 10 34  1  0
 11 35  1  0
 15 36  1  0
 15 37  1  0
 15 38  1  0
M  END
>  <Energy>  (393) 
-12.418631199351182

>  <compound_id>  (393) 
3391

>  <target_id>  (393) 
1

>  <reference_id>  (393) 
114

>  <inspiration_ids>  (393) 
[114, 4]

>  <energy_score>  (393) 
-80.66966224601012

>  <distance_score>  (393) 
2.132651231798809

>  <path>  (393) 
/opt/xchem-fragalysis-2/maxwin/BulkDock/SCRATCH/505734/C3391-P114/C3391-P114.minimised.mol

>  <scratch_subdir>  (393) 
/opt/xchem-fragalysis-2/maxwin/BulkDock/SCRATCH/505734/C3391-P114

>  <fragmenstein_runtime>  (393) 
4.2648704051971436

>  <fragmenstein_outcome>  (393) 
too moved

>  <fragmenstein_mode>  (393) 
expansion

>  <fragmenstein_error>  (393) 


$$$$
C3391-P4
     RDKit          3D

 38 38  0  0  0  0  0  0  0  0999 V2000
   12.0983   -2.9600   13.6081 C   0  0  0  0  0  0  0  0  0  0  0  0
   13.4556   -2.9772   13.1820 O   0  0  0  0  0  0  0  0  0  0  0  0
   14.1000   -1.7366   12.8566 C   0  0  0  0  0  0  0  0  0  0  0  0
   13.9278   -0.7351   13.9983 C   0  0  0  0  0  0  0  0  0  0  0  0
   13.6296   -1.1971   15.3921 C   0  0  0  0  0  0  0  0  0  0  0  0
   14.5084   -2.2639   15.8159 N   0  0  0  0  0  0  0  0  0  0  0  0
   14.1800   -2.7316   17.1274 C   0  0  0  0  0  0  0  0  0  0  0  0
   14.6990   -1.7280   18.0200 N   0  0  0  0  0  0  0  0  0  0  0  0
   15.5846   -2.0780   12.3923 C   0  0  0  0  0  0  0  0  0  0  0  0
   15.5554   -2.9631   11.1603 C   0  0  0  0  0  0  0  0  0  0  0  0
   16.5580   -1.0101   12.0781 N   0  0  0  0  0  0  0  0  0  0  0  0
   16.0276    0.1571   11.6889 C   0  0  0  0  0  0  0  0  0  0  0  0
   15.7224    1.0599   12.5775 N   0  0  0  0  0  0  0  0  0  0  0  0
   14.7017    1.8140   12.0607 C   0  0  0  0  0  0  0  0  0  0  0  0
   13.8208    2.5343   13.0004 C   0  0  0  0  0  0  0  0  0  0  0  0
   14.4584    1.7868   10.7496 N   0  0  0  0  0  0  0  0  0  0  0  0
   15.5038    0.6219   10.1234 S   0  0  0  0  0  0  0  0  0  0  0  0
   12.0342   -3.2498   14.6598 H   0  0  0  0  0  0  0  0  0  0  0  0
   11.6385   -1.9863   13.4532 H   0  0  0  0  0  0  0  0  0  0  0  0
   11.5522   -3.7377   13.0742 H   0  0  0  0  0  0  0  0  0  0  0  0
   13.6051   -1.3151   11.9802 H   0  0  0  0  0  0  0  0  0  0  0  0
   14.8396   -0.1553   14.1119 H   0  0  0  0  0  0  0  0  0  0  0  0
   13.1334   -0.0348   13.7171 H   0  0  0  0  0  0  0  0  0  0  0  0
   12.5735   -1.4392   15.5161 H   0  0  0  0  0  0  0  0  0  0  0  0
   13.8489   -0.3137   15.9991 H   0  0  0  0  0  0  0  0  0  0  0  0
   14.4146   -3.0227   15.1494 H   0  0  0  0  0  0  0  0  0  0  0  0
   14.7063   -3.6733   17.3103 H   0  0  0  0  0  0  0  0  0  0  0  0
   13.1123   -2.9216   17.2711 H   0  0  0  0  0  0  0  0  0  0  0  0
   14.8511   -2.1455   18.9366 H   0  0  0  0  0  0  0  0  0  0  0  0
   15.6234   -1.4889   17.6628 H   0  0  0  0  0  0  0  0  0  0  0  0
   16.0285   -2.6772   13.1981 H   0  0  0  0  0  0  0  0  0  0  0  0
   15.1776   -2.4175   10.2931 H   0  0  0  0  0  0  0  0  0  0  0  0
   16.5586   -3.3276   10.9148 H   0  0  0  0  0  0  0  0  0  0  0  0
   14.9103   -3.8170   11.3349 H   0  0  0  0  0  0  0  0  0  0  0  0
   17.0833   -0.8540   12.9388 H   0  0  0  0  0  0  0  0  0  0  0  0
   14.1150    2.3624   14.0405 H   0  0  0  0  0  0  0  0  0  0  0  0
   12.7807    2.2145   12.8818 H   0  0  0  0  0  0  0  0  0  0  0  0
   13.8696    3.6118   12.8137 H   0  0  0  0  0  0  0  0  0  0  0  0
  1  2  1  0
  2  3  1  0
  3  4  1  0
  4  5  1  0
  5  6  1  0
  6  7  1  0
  7  8  1  0
  3  9  1  0
  9 10  1  0
  9 11  1  0
 11 12  1  0
 12 13  2  0
 13 14  1  0
 14 15  1  0
 14 16  2  0
 16 17  1  0
 17 12  1  0
  1 18  1  0
  1 19  1  0
  1 20  1  0
  3 21  1  0
  4 22  1  0
  4 23  1  0
  5 24  1  0
  5 25  1  0
  6 26  1  0
  7 27  1  0
  7 28  1  0
  8 29  1  0
  8 30  1  0
  9 31  1  0
 10 32  1  0
 10 33  1  0
 10 34  1  0
 11 35  1  0
 15 36  1  0
 15 37  1  0
 15 38  1  0
M  END
>  <Energy>  (394) 
-7.0447848559117769

>  <compound_id>  (394) 
3391

>  <target_id>  (394) 
1

>  <reference_id>  (394) 
4

>  <inspiration_ids>  (394) 
[114, 4]

>  <energy_score>  (394) 
-75.29581590256939

>  <distance_score>  (394) 
2.697068477030002

>  <path>  (394) 
/opt/xchem-fragalysis-2/maxwin/BulkDock/SCRATCH/505734/C3391-P4/C3391-P4.minimised.mol

>  <scratch_subdir>  (394) 
/opt/xchem-fragalysis-2/maxwin/BulkDock/SCRATCH/505734/C3391-P4

>  <fragmenstein_runtime>  (394) 
4.762235879898071

>  <fragmenstein_outcome>  (394) 
too moved

>  <fragmenstein_mode>  (394) 
expansion

>  <fragmenstein_error>  (394) 


$$$$
C3393-P114
     RDKit          3D

 26 28  0  0  0  0  0  0  0  0999 V2000
   10.2031   -2.2304   15.0142 N   0  0  0  0  0  0  0  0  0  0  0  0
   11.5514   -1.9732   15.4662 C   0  0  0  0  0  0  0  0  0  0  0  0
   12.1114   -2.2985   16.4755 O   0  0  0  0  0  0  0  0  0  0  0  0
   12.3426   -1.0462   14.5296 C   0  0  0  0  0  0  0  0  0  0  0  0
   13.6669   -1.6163   14.0184 C   0  0  0  0  0  0  0  0  0  0  0  0
   14.5954   -2.2747   15.0323 C   0  0  0  0  0  0  0  0  0  0  0  0
   15.2253   -1.3810   16.0507 C   0  0  0  0  0  0  0  0  0  0  0  0
   16.3589   -1.6932   16.6361 N   0  0  0  0  0  0  0  0  0  0  0  0
   16.6216   -0.6371   17.4849 C   0  0  0  0  0  0  0  0  0  0  0  0
   15.7072    0.3404   17.4606 C   0  0  0  0  0  0  0  0  0  0  0  0
   14.7031   -0.0757   16.5142 C   0  0  0  0  0  0  0  0  0  0  0  0
   13.6112    0.6069   16.1737 C   0  0  0  0  0  0  0  0  0  0  0  0
   13.2890    1.8598   16.6460 N   0  0  0  0  0  0  0  0  0  0  0  0
   12.1829    2.1718   16.0452 C   0  0  0  0  0  0  0  0  0  0  0  0
   11.6713    1.2320   15.1713 N   0  0  0  0  0  0  0  0  0  0  0  0
   12.5336    0.2530   15.2422 C   0  0  0  0  0  0  0  0  0  0  0  0
   10.1024   -1.8905   14.0259 H   0  0  0  0  0  0  0  0  0  0  0  0
   10.0279   -1.6876   14.1312 H   0  0  0  0  0  0  0  0  0  0  0  0
   11.7555   -0.8043   13.6368 H   0  0  0  0  0  0  0  0  0  0  0  0
   14.2207   -0.8230   13.4981 H   0  0  0  0  0  0  0  0  0  0  0  0
   13.4252   -2.3628   13.2522 H   0  0  0  0  0  0  0  0  0  0  0  0
   15.4293   -2.7145   14.4676 H   0  0  0  0  0  0  0  0  0  0  0  0
   14.1206   -3.1106   15.5530 H   0  0  0  0  0  0  0  0  0  0  0  0
   17.5105   -0.6482   18.1036 H   0  0  0  0  0  0  0  0  0  0  0  0
   15.7042    1.2501   18.0376 H   0  0  0  0  0  0  0  0  0  0  0  0
   11.6613    3.1275   16.2139 H   0  0  0  0  0  0  0  0  0  0  0  0
  1  2  1  0
  2  3  2  0
  2  4  1  0
  4  5  1  0
  5  6  1  0
  6  7  1  0
  7  8  2  0
  8  9  1  0
  9 10  2  0
 10 11  1  0
 11 12  2  0
 12 13  1  0
 13 14  2  0
 14 15  1  0
 15 16  2  0
 16  4  1  0
 11  7  1  0
 16 12  1  0
  1 17  1  0
  1 18  1  0
  4 19  1  0
  5 20  1  0
  5 21  1  0
  6 22  1  0
  6 23  1  0
  9 24  1  0
 10 25  1  0
 14 26  1  0
M  END
>  <Energy>  (395) 
208.26978755981614

>  <compound_id>  (395) 
3393

>  <target_id>  (395) 
1

>  <reference_id>  (395) 
114

>  <inspiration_ids>  (395) 
[114, 10]

>  <energy_score>  (395) 
144.56341274537286

>  <distance_score>  (395) 
3.0049391156572147

>  <path>  (395) 
/opt/xchem-fragalysis-2/maxwin/BulkDock/SCRATCH/505734/C3393-P114/C3393-P114.minimised.mol

>  <scratch_subdir>  (395) 
/opt/xchem-fragalysis-2/maxwin/BulkDock/SCRATCH/505734/C3393-P114

>  <fragmenstein_runtime>  (395) 
3.47009015083313

>  <fragmenstein_outcome>  (395) 
too moved

>  <fragmenstein_mode>  (395) 
expansion

>  <fragmenstein_error>  (395) 


$$$$
C3393-P10
     RDKit          3D

 26 28  0  0  0  0  0  0  0  0999 V2000
   12.1638   -4.3641   16.5067 N   0  0  0  0  0  0  0  0  0  0  0  0
   13.4937   -4.3091   17.0592 C   0  0  0  0  0  0  0  0  0  0  0  0
   14.1189   -5.1299   17.6776 O   0  0  0  0  0  0  0  0  0  0  0  0
   14.2203   -2.9555   16.8415 C   0  0  0  0  0  0  0  0  0  0  0  0
   15.6689   -3.2322   16.4019 C   0  0  0  0  0  0  0  0  0  0  0  0
   16.6281   -2.2399   17.0327 C   0  0  0  0  0  0  0  0  0  0  0  0
   16.6314   -0.9065   16.3584 C   0  0  0  0  0  0  0  0  0  0  0  0
   17.7020   -0.1513   16.3249 N   0  0  0  0  0  0  0  0  0  0  0  0
   17.3239    0.9705   15.6162 C   0  0  0  0  0  0  0  0  0  0  0  0
   16.0508    0.9711   15.2016 C   0  0  0  0  0  0  0  0  0  0  0  0
   15.4810   -0.2654   15.6703 C   0  0  0  0  0  0  0  0  0  0  0  0
   14.2295   -0.6823   15.4811 C   0  0  0  0  0  0  0  0  0  0  0  0
   13.2581   -0.0170   14.7626 N   0  0  0  0  0  0  0  0  0  0  0  0
   12.2273   -0.8051   14.7772 C   0  0  0  0  0  0  0  0  0  0  0  0
   12.3712   -1.9764   15.5056 N   0  0  0  0  0  0  0  0  0  0  0  0
   13.6052   -1.9260   15.9439 C   0  0  0  0  0  0  0  0  0  0  0  0
   11.9107   -3.4239   16.1385 H   0  0  0  0  0  0  0  0  0  0  0  0
   11.9990   -3.5103   15.9342 H   0  0  0  0  0  0  0  0  0  0  0  0
   14.2139   -2.5019   17.8434 H   0  0  0  0  0  0  0  0  0  0  0  0
   16.0017   -4.2321   16.7022 H   0  0  0  0  0  0  0  0  0  0  0  0
   15.7554   -3.2110   15.3077 H   0  0  0  0  0  0  0  0  0  0  0  0
   16.4295   -2.0963   18.1004 H   0  0  0  0  0  0  0  0  0  0  0  0
   17.6458   -2.6429   16.9522 H   0  0  0  0  0  0  0  0  0  0  0  0
   18.0427    1.7602   15.4325 H   0  0  0  0  0  0  0  0  0  0  0  0
   15.5475    1.7354   14.6337 H   0  0  0  0  0  0  0  0  0  0  0  0
   11.2801   -0.5717   14.2640 H   0  0  0  0  0  0  0  0  0  0  0  0
  1  2  1  0
  2  3  2  0
  2  4  1  0
  4  5  1  0
  5  6  1  0
  6  7  1  0
  7  8  2  0
  8  9  1  0
  9 10  2  0
 10 11  1  0
 11 12  2  0
 12 13  1  0
 13 14  2  0
 14 15  1  0
 15 16  2  0
 16  4  1  0
 11  7  1  0
 16 12  1  0
  1 17  1  0
  1 18  1  0
  4 19  1  0
  5 20  1  0
  5 21  1  0
  6 22  1  0
  6 23  1  0
  9 24  1  0
 10 25  1  0
 14 26  1  0
M  END
>  <Energy>  (396) 
202.5671317282598

>  <compound_id>  (396) 
3393

>  <target_id>  (396) 
1

>  <reference_id>  (396) 
10

>  <inspiration_ids>  (396) 
[114, 10]

>  <energy_score>  (396) 
138.8607569138177

>  <distance_score>  (396) 
2.429937365215133

>  <path>  (396) 
/opt/xchem-fragalysis-2/maxwin/BulkDock/SCRATCH/505734/C3393-P10/C3393-P10.minimised.mol

>  <scratch_subdir>  (396) 
/opt/xchem-fragalysis-2/maxwin/BulkDock/SCRATCH/505734/C3393-P10

>  <fragmenstein_runtime>  (396) 
3.724705934524536

>  <fragmenstein_outcome>  (396) 
too moved

>  <fragmenstein_mode>  (396) 
expansion

>  <fragmenstein_error>  (396) 


$$$$
C3394-P114
     RDKit          3D

 32 34  0  0  0  0  0  0  0  0999 V2000
   13.7375   -5.2050   17.8443 O   0  0  0  0  0  0  0  0  0  0  0  0
   13.7373   -4.0339   17.4696 C   0  0  0  0  0  0  0  0  0  0  0  0
   12.6996   -3.4300   16.4805 C   0  0  0  0  0  0  0  0  0  0  0  0
   12.5731   -1.9555   16.6095 N   0  0  0  0  0  0  0  0  0  0  0  0
   11.6727   -1.3623   15.6978 C   0  0  0  0  0  0  0  0  0  0  0  0
   10.6981   -0.6036   16.2778 N   0  0  0  0  0  0  0  0  0  0  0  0
   10.1512    0.4093   15.5697 C   0  0  0  0  0  0  0  0  0  0  0  0
   10.5433    0.7396   14.2950 C   0  0  0  0  0  0  0  0  0  0  0  0
   11.4392   -0.1052   13.6673 C   0  0  0  0  0  0  0  0  0  0  0  0
   11.9373   -1.2221   14.3331 C   0  0  0  0  0  0  0  0  0  0  0  0
   12.7958   -2.0204   13.6833 F   0  0  0  0  0  0  0  0  0  0  0  0
   13.9098   -1.2919   16.6171 C   0  0  0  0  0  0  0  0  0  0  0  0
   13.8467    0.2439   16.7867 C   0  0  0  0  0  0  0  0  0  0  0  0
   14.1970    0.7948   15.4757 N   0  0  0  0  0  0  0  0  0  0  0  0
   15.1295   -0.1759   14.9407 C   0  0  0  0  0  0  0  0  0  0  0  0
   14.7405   -1.4746   15.4245 N   0  0  0  0  0  0  0  0  0  0  0  0
   14.6782   -1.8223   17.8697 C   0  0  0  0  0  0  0  0  0  0  0  0
   14.7884   -3.2574   17.8853 N   0  0  0  0  0  0  0  0  0  0  0  0
   11.7352   -3.9042   16.6823 H   0  0  0  0  0  0  0  0  0  0  0  0
   13.0177   -3.7079   15.4748 H   0  0  0  0  0  0  0  0  0  0  0  0
    9.4112    1.0012   16.0988 H   0  0  0  0  0  0  0  0  0  0  0  0
   10.1665    1.6175   13.7926 H   0  0  0  0  0  0  0  0  0  0  0  0
   11.7818    0.1220   12.6703 H   0  0  0  0  0  0  0  0  0  0  0  0
   12.8841    0.6325   17.1135 H   0  0  0  0  0  0  0  0  0  0  0  0
   14.5935    0.6102   17.5029 H   0  0  0  0  0  0  0  0  0  0  0  0
   13.3709    0.7783   14.8896 H   0  0  0  0  0  0  0  0  0  0  0  0
   16.1403    0.0680   15.2888 H   0  0  0  0  0  0  0  0  0  0  0  0
   15.1473   -0.1487   13.8467 H   0  0  0  0  0  0  0  0  0  0  0  0
   15.5507   -2.0577   15.6133 H   0  0  0  0  0  0  0  0  0  0  0  0
   15.6990   -1.4237   17.9173 H   0  0  0  0  0  0  0  0  0  0  0  0
   14.1752   -1.5295   18.7959 H   0  0  0  0  0  0  0  0  0  0  0  0
   15.3533   -3.7032   18.5978 H   0  0  0  0  0  0  0  0  0  0  0  0
  1  2  2  0
  2  3  1  0
  3  4  1  0
  4  5  1  0
  5  6  2  0
  6  7  1  0
  7  8  2  0
  8  9  1  0
  9 10  2  0
 10 11  1  0
  4 12  1  0
 12 13  1  0
 13 14  1  0
 14 15  1  0
 15 16  1  0
 12 17  1  0
 17 18  1  0
 18  2  1  0
 10  5  1  0
 16 12  1  0
  3 19  1  0
  3 20  1  0
  7 21  1  0
  8 22  1  0
  9 23  1  0
 13 24  1  0
 13 25  1  0
 14 26  1  0
 15 27  1  0
 15 28  1  0
 16 29  1  0
 17 30  1  0
 17 31  1  0
 18 32  1  0
M  END
>  <Energy>  (397) 
74.683190363244719

>  <compound_id>  (397) 
3394

>  <target_id>  (397) 
1

>  <reference_id>  (397) 
114

>  <inspiration_ids>  (397) 
[114, 15]

>  <energy_score>  (397) 
-19.97322618573159

>  <distance_score>  (397) 
1.8328698758504063

>  <path>  (397) 
/opt/xchem-fragalysis-2/maxwin/BulkDock/SCRATCH/505734/C3394-P114/C3394-P114.minimised.mol

>  <scratch_subdir>  (397) 
/opt/xchem-fragalysis-2/maxwin/BulkDock/SCRATCH/505734/C3394-P114

>  <fragmenstein_runtime>  (397) 
2.180964469909668

>  <fragmenstein_outcome>  (397) 
too moved

>  <fragmenstein_mode>  (397) 
expansion

>  <fragmenstein_error>  (397) 


$$$$
C3394-P15
     RDKit          3D

 32 34  0  0  0  0  0  0  0  0999 V2000
   13.9787   -5.1261   18.1169 O   0  0  0  0  0  0  0  0  0  0  0  0
   13.9194   -3.9727   17.6868 C   0  0  0  0  0  0  0  0  0  0  0  0
   12.8371   -3.5158   16.6801 C   0  0  0  0  0  0  0  0  0  0  0  0
   12.9125   -2.0872   16.3449 N   0  0  0  0  0  0  0  0  0  0  0  0
   11.8173   -1.3490   15.9706 C   0  0  0  0  0  0  0  0  0  0  0  0
   11.8571   -0.0206   16.2422 N   0  0  0  0  0  0  0  0  0  0  0  0
   10.8110    0.7715   15.9689 C   0  0  0  0  0  0  0  0  0  0  0  0
    9.6106    0.2734   15.5476 C   0  0  0  0  0  0  0  0  0  0  0  0
    9.5358   -1.0777   15.2522 C   0  0  0  0  0  0  0  0  0  0  0  0
   10.6647   -1.8811   15.4147 C   0  0  0  0  0  0  0  0  0  0  0  0
   10.5946   -3.1782   15.0839 F   0  0  0  0  0  0  0  0  0  0  0  0
   14.2540   -1.4896   16.2363 C   0  0  0  0  0  0  0  0  0  0  0  0
   15.0642   -2.2106   15.1395 C   0  0  0  0  0  0  0  0  0  0  0  0
   14.5462   -1.6043   13.9110 N   0  0  0  0  0  0  0  0  0  0  0  0
   14.2426   -0.2377   14.2805 C   0  0  0  0  0  0  0  0  0  0  0  0
   14.4821   -0.1289   15.7147 N   0  0  0  0  0  0  0  0  0  0  0  0
   14.9112   -1.6904   17.6292 C   0  0  0  0  0  0  0  0  0  0  0  0
   14.8936   -3.0800   18.0628 N   0  0  0  0  0  0  0  0  0  0  0  0
   11.8767   -3.7674   17.1285 H   0  0  0  0  0  0  0  0  0  0  0  0
   12.9506   -4.1138   15.7766 H   0  0  0  0  0  0  0  0  0  0  0  0
   10.9605    1.8268   16.1769 H   0  0  0  0  0  0  0  0  0  0  0  0
    8.7760    0.9416   15.4533 H   0  0  0  0  0  0  0  0  0  0  0  0
    8.6239   -1.5146   14.8543 H   0  0  0  0  0  0  0  0  0  0  0  0
   16.1402   -1.9999   15.2275 H   0  0  0  0  0  0  0  0  0  0  0  0
   14.9632   -3.2945   15.1339 H   0  0  0  0  0  0  0  0  0  0  0  0
   15.2350   -1.6460   13.1655 H   0  0  0  0  0  0  0  0  0  0  0  0
   14.8962    0.4625   13.7481 H   0  0  0  0  0  0  0  0  0  0  0  0
   13.2170    0.0170   14.0004 H   0  0  0  0  0  0  0  0  0  0  0  0
   15.4549    0.1234   15.8506 H   0  0  0  0  0  0  0  0  0  0  0  0
   15.9596   -1.3716   17.6315 H   0  0  0  0  0  0  0  0  0  0  0  0
   14.3821   -1.1085   18.3929 H   0  0  0  0  0  0  0  0  0  0  0  0
   15.5201   -3.3993   18.7910 H   0  0  0  0  0  0  0  0  0  0  0  0
  1  2  2  0
  2  3  1  0
  3  4  1  0
  4  5  1  0
  5  6  2  0
  6  7  1  0
  7  8  2  0
  8  9  1  0
  9 10  2  0
 10 11  1  0
  4 12  1  0
 12 13  1  0
 13 14  1  0
 14 15  1  0
 15 16  1  0
 12 17  1  0
 17 18  1  0
 18  2  1  0
 10  5  1  0
 16 12  1  0
  3 19  1  0
  3 20  1  0
  7 21  1  0
  8 22  1  0
  9 23  1  0
 13 24  1  0
 13 25  1  0
 14 26  1  0
 15 27  1  0
 15 28  1  0
 16 29  1  0
 17 30  1  0
 17 31  1  0
 18 32  1  0
M  END
>  <Energy>  (398) 
75.832732455054639

>  <compound_id>  (398) 
3394

>  <target_id>  (398) 
1

>  <reference_id>  (398) 
15

>  <inspiration_ids>  (398) 
[114, 15]

>  <energy_score>  (398) 
-18.823684093923305

>  <distance_score>  (398) 
1.8990833463185988

>  <path>  (398) 
/opt/xchem-fragalysis-2/maxwin/BulkDock/SCRATCH/505734/C3394-P15/C3394-P15.minimised.mol

>  <scratch_subdir>  (398) 
/opt/xchem-fragalysis-2/maxwin/BulkDock/SCRATCH/505734/C3394-P15

>  <fragmenstein_runtime>  (398) 
1.3837921619415283

>  <fragmenstein_outcome>  (398) 
too moved

>  <fragmenstein_mode>  (398) 
expansion

>  <fragmenstein_error>  (398) 


$$$$
C3297-P114
     RDKit          3D

 27 29  0  0  0  0  0  0  0  0999 V2000
   13.7333   -5.0973   17.0397 O   0  0  0  0  0  0  0  0  0  0  0  0
   14.3903   -3.9822   17.5691 C   0  0  0  0  0  0  0  0  0  0  0  0
   13.6064   -2.7173   17.3130 C   0  0  0  0  0  0  0  0  0  0  0  0
   13.7724   -2.1174   15.8883 C   0  0  0  0  0  0  0  0  0  0  0  0
   12.6752   -2.6534   15.0234 N   0  0  0  0  0  0  0  0  0  0  0  0
   11.6125   -1.6436   15.0067 C   0  0  0  0  0  0  0  0  0  0  0  0
   12.0117   -0.5713   15.9134 N   0  0  0  0  0  0  0  0  0  0  0  0
   13.4774   -0.6092   15.8052 C   0  0  0  0  0  0  0  0  0  0  0  0
   14.3622    0.6186   17.2409 I   0  0  0  0  0  0  0  0  0  0  0  0
   15.0545   -2.4642   15.2874 N   0  0  0  0  0  0  0  0  0  0  0  0
   15.5941   -2.0354   14.1021 C   0  0  0  0  0  0  0  0  0  0  0  0
   16.8361   -2.6243   14.0467 C   0  0  0  0  0  0  0  0  0  0  0  0
   17.0575   -3.3998   15.1531 N   0  0  0  0  0  0  0  0  0  0  0  0
   15.9709   -3.2996   15.8738 C   0  0  0  0  0  0  0  0  0  0  0  0
   15.7134   -3.9095   17.0384 N   0  0  0  0  0  0  0  0  0  0  0  0
   13.8313   -5.0421   16.0737 H   0  0  0  0  0  0  0  0  0  0  0  0
   14.4521   -4.1440   18.6507 H   0  0  0  0  0  0  0  0  0  0  0  0
   12.5500   -2.9023   17.5293 H   0  0  0  0  0  0  0  0  0  0  0  0
   13.9542   -2.0114   18.0691 H   0  0  0  0  0  0  0  0  0  0  0  0
   12.9979   -2.7236   14.0582 H   0  0  0  0  0  0  0  0  0  0  0  0
   11.5070   -1.2340   13.9971 H   0  0  0  0  0  0  0  0  0  0  0  0
   10.6539   -2.0781   15.3036 H   0  0  0  0  0  0  0  0  0  0  0  0
   11.7666   -0.8696   16.8522 H   0  0  0  0  0  0  0  0  0  0  0  0
   13.7374   -0.1984   14.8206 H   0  0  0  0  0  0  0  0  0  0  0  0
   15.0844   -1.3783   13.4128 H   0  0  0  0  0  0  0  0  0  0  0  0
   17.5797   -2.5379   13.2654 H   0  0  0  0  0  0  0  0  0  0  0  0
   16.3372   -4.6657   17.3029 H   0  0  0  0  0  0  0  0  0  0  0  0
  1  2  1  0
  2  3  1  0
  3  4  1  0
  4  5  1  0
  5  6  1  0
  6  7  1  0
  7  8  1  0
  8  9  1  0
  4 10  1  0
 10 11  1  0
 11 12  2  0
 12 13  1  0
 13 14  2  0
 14 15  1  0
 15  2  1  0
  8  4  1  0
 14 10  1  0
  1 16  1  0
  2 17  1  0
  3 18  1  0
  3 19  1  0
  5 20  1  0
  6 21  1  0
  6 22  1  0
  7 23  1  0
  8 24  1  0
 11 25  1  0
 12 26  1  0
 15 27  1  0
M  END
>  <Energy>  (399) 
-76.229905239661534

>  <compound_id>  (399) 
3297

>  <target_id>  (399) 
1

>  <reference_id>  (399) 
114

>  <inspiration_ids>  (399) 
[114, 81]

>  <energy_score>  (399) 
-40.516667328773465

>  <distance_score>  (399) 
1.059917073951264

>  <path>  (399) 
/opt/xchem-fragalysis-2/maxwin/BulkDock/SCRATCH/505734/C3297-P114/C3297-P114.minimised.mol

>  <scratch_subdir>  (399) 
/opt/xchem-fragalysis-2/maxwin/BulkDock/SCRATCH/505734/C3297-P114

>  <fragmenstein_runtime>  (399) 
0.7741320133209229

>  <fragmenstein_outcome>  (399) 
too moved

>  <fragmenstein_mode>  (399) 
expansion

>  <fragmenstein_error>  (399) 


$$$$
C3297-P81
     RDKit          3D

 27 29  0  0  0  0  0  0  0  0999 V2000
   13.7160   -5.0225   17.1212 O   0  0  0  0  0  0  0  0  0  0  0  0
   14.3874   -3.8907   17.5909 C   0  0  0  0  0  0  0  0  0  0  0  0
   13.5997   -2.6392   17.2927 C   0  0  0  0  0  0  0  0  0  0  0  0
   13.7422   -2.1013   15.8423 C   0  0  0  0  0  0  0  0  0  0  0  0
   12.6417   -2.6856   15.0146 N   0  0  0  0  0  0  0  0  0  0  0  0
   11.5665   -1.6897   14.9688 C   0  0  0  0  0  0  0  0  0  0  0  0
   11.9653   -0.5708   15.8190 N   0  0  0  0  0  0  0  0  0  0  0  0
   13.4306   -0.6011   15.7003 C   0  0  0  0  0  0  0  0  0  0  0  0
   14.3111    0.6923   17.0827 I   0  0  0  0  0  0  0  0  0  0  0  0
   15.0203   -2.4627   15.2420 N   0  0  0  0  0  0  0  0  0  0  0  0
   15.5454   -2.0770   14.0355 C   0  0  0  0  0  0  0  0  0  0  0  0
   16.7868   -2.6681   13.9864 C   0  0  0  0  0  0  0  0  0  0  0  0
   17.0222   -3.4015   15.1181 N   0  0  0  0  0  0  0  0  0  0  0  0
   15.9442   -3.2761   15.8474 C   0  0  0  0  0  0  0  0  0  0  0  0
   15.7007   -3.8450   17.0350 N   0  0  0  0  0  0  0  0  0  0  0  0
   13.7919   -5.0106   16.1513 H   0  0  0  0  0  0  0  0  0  0  0  0
   14.4673   -4.0059   18.6774 H   0  0  0  0  0  0  0  0  0  0  0  0
   12.5467   -2.8164   17.5316 H   0  0  0  0  0  0  0  0  0  0  0  0
   13.9606   -1.9027   18.0122 H   0  0  0  0  0  0  0  0  0  0  0  0
   12.9543   -2.8009   14.0502 H   0  0  0  0  0  0  0  0  0  0  0  0
   11.4350   -1.3321   13.9423 H   0  0  0  0  0  0  0  0  0  0  0  0
   10.6190   -2.1219   15.3024 H   0  0  0  0  0  0  0  0  0  0  0  0
   11.7298   -0.8231   16.7740 H   0  0  0  0  0  0  0  0  0  0  0  0
   13.6791   -0.2274   14.6983 H   0  0  0  0  0  0  0  0  0  0  0  0
   15.0262   -1.4470   13.3284 H   0  0  0  0  0  0  0  0  0  0  0  0
   17.5205   -2.6124   13.1930 H   0  0  0  0  0  0  0  0  0  0  0  0
   16.3325   -4.5848   17.3257 H   0  0  0  0  0  0  0  0  0  0  0  0
  1  2  1  0
  2  3  1  0
  3  4  1  0
  4  5  1  0
  5  6  1  0
  6  7  1  0
  7  8  1  0
  8  9  1  0
  4 10  1  0
 10 11  1  0
 11 12  2  0
 12 13  1  0
 13 14  2  0
 14 15  1  0
 15  2  1  0
  8  4  1  0
 14 10  1  0
  1 16  1  0
  2 17  1  0
  3 18  1  0
  3 19  1  0
  5 20  1  0
  6 21  1  0
  6 22  1  0
  7 23  1  0
  8 24  1  0
 11 25  1  0
 12 26  1  0
 15 27  1  0
M  END
>  <Energy>  (400) 
-76.277039434037121

>  <compound_id>  (400) 
3297

>  <target_id>  (400) 
1

>  <reference_id>  (400) 
81

>  <inspiration_ids>  (400) 
[114, 81]

>  <energy_score>  (400) 
-40.56380152315021

>  <distance_score>  (400) 
1.0874653123812241

>  <path>  (400) 
/opt/xchem-fragalysis-2/maxwin/BulkDock/SCRATCH/505734/C3297-P81/C3297-P81.minimised.mol

>  <scratch_subdir>  (400) 
/opt/xchem-fragalysis-2/maxwin/BulkDock/SCRATCH/505734/C3297-P81

>  <fragmenstein_runtime>  (400) 
0.8132364749908447

>  <fragmenstein_outcome>  (400) 
too moved

>  <fragmenstein_mode>  (400) 
expansion

>  <fragmenstein_error>  (400) 


$$$$
C3399-P114
     RDKit          3D

 40 42  0  0  0  0  0  0  0  0999 V2000
   16.9823    1.9193   12.1788 C   0  0  0  0  0  0  0  0  0  0  0  0
   15.7307    1.4997   12.9421 C   0  0  0  0  0  0  0  0  0  0  0  0
   14.5249    1.5843   12.0047 C   0  0  0  0  0  0  0  0  0  0  0  0
   15.5510    2.4506   13.9911 O   0  0  0  0  0  0  0  0  0  0  0  0
   14.6078    2.1512   14.8998 C   0  0  0  0  0  0  0  0  0  0  0  0
   13.9592    2.9810   15.5142 O   0  0  0  0  0  0  0  0  0  0  0  0
   14.4346    0.7307   15.1416 C   0  0  0  0  0  0  0  0  0  0  0  0
   13.4342    0.3344   16.0094 C   0  0  0  0  0  0  0  0  0  0  0  0
   13.2094   -1.0117   16.1568 C   0  0  0  0  0  0  0  0  0  0  0  0
   11.9655   -1.4517   16.4975 O   0  0  0  0  0  0  0  0  0  0  0  0
   11.1269   -1.2341   15.3499 C   0  0  0  0  0  0  0  0  0  0  0  0
   10.2327   -0.0108   15.5813 C   0  0  0  0  0  0  0  0  0  0  0  0
    9.6751    0.4822   14.3557 N   0  0  0  0  0  0  0  0  0  0  0  0
    8.7014   -0.1584   13.7045 C   0  0  0  0  0  0  0  0  0  0  0  0
    8.4368    0.1122   12.4319 N   0  0  0  0  0  0  0  0  0  0  0  0
    7.4534   -0.7047   11.9676 C   0  0  0  0  0  0  0  0  0  0  0  0
    7.0103   -1.4472   12.9314 N   0  0  0  0  0  0  0  0  0  0  0  0
    7.8864   -1.1960   13.9103 C   0  0  0  0  0  0  0  0  0  0  0  0
    7.7442   -2.4587   15.1616 I   0  0  0  0  0  0  0  0  0  0  0  0
   14.1510   -1.9284   15.7272 C   0  0  0  0  0  0  0  0  0  0  0  0
   14.0795   -3.2188   16.1256 O   0  0  0  0  0  0  0  0  0  0  0  0
   15.1400   -1.5380   14.8392 C   0  0  0  0  0  0  0  0  0  0  0  0
   15.2009   -0.1984   14.4581 C   0  0  0  0  0  0  0  0  0  0  0  0
   15.9648    0.1575   13.3868 O   0  0  0  0  0  0  0  0  0  0  0  0
   17.8580    1.8893   12.8382 H   0  0  0  0  0  0  0  0  0  0  0  0
   17.1877    1.2439   11.3412 H   0  0  0  0  0  0  0  0  0  0  0  0
   16.9002    2.9446   11.8019 H   0  0  0  0  0  0  0  0  0  0  0  0
   14.3642    2.6093   11.6530 H   0  0  0  0  0  0  0  0  0  0  0  0
   13.5970    1.2663   12.4923 H   0  0  0  0  0  0  0  0  0  0  0  0
   14.6567    0.9264   11.1384 H   0  0  0  0  0  0  0  0  0  0  0  0
   12.7930    1.0735   16.4765 H   0  0  0  0  0  0  0  0  0  0  0  0
   10.5625   -2.1548   15.2237 H   0  0  0  0  0  0  0  0  0  0  0  0
   11.6932   -1.1291   14.4106 H   0  0  0  0  0  0  0  0  0  0  0  0
    9.4456   -0.2097   16.3100 H   0  0  0  0  0  0  0  0  0  0  0  0
   10.7908    0.8113   16.0308 H   0  0  0  0  0  0  0  0  0  0  0  0
   10.3349    0.9827   13.7697 H   0  0  0  0  0  0  0  0  0  0  0  0
    7.0592   -0.7669   10.9677 H   0  0  0  0  0  0  0  0  0  0  0  0
    6.3193   -2.1703   12.8988 H   0  0  0  0  0  0  0  0  0  0  0  0
   13.3004   -3.3161   16.7052 H   0  0  0  0  0  0  0  0  0  0  0  0
   15.7998   -2.2768   14.3935 H   0  0  0  0  0  0  0  0  0  0  0  0
  1  2  1  0
  2  3  1  0
  2  4  1  0
  4  5  1  0
  5  6  2  0
  5  7  1  0
  7  8  2  0
  8  9  1  0
  9 10  1  0
 10 11  1  0
 11 12  1  0
 12 13  1  0
 13 14  1  0
 14 15  1  0
 15 16  2  0
 16 17  1  0
 17 18  1  0
 18 19  1  0
  9 20  2  0
 20 21  1  0
 20 22  1  0
 22 23  2  0
 23 24  1  0
 24  2  1  0
 23  7  1  0
 18 14  2  0
  1 25  1  0
  1 26  1  0
  1 27  1  0
  3 28  1  0
  3 29  1  0
  3 30  1  0
  8 31  1  0
 11 32  1  0
 11 33  1  0
 12 34  1  0
 12 35  1  0
 13 36  1  0
 16 37  1  0
 17 38  1  0
 21 39  1  0
 22 40  1  0
M  END
>  <Energy>  (401) 
63.448200843938537

>  <compound_id>  (401) 
3399

>  <target_id>  (401) 
1

>  <reference_id>  (401) 
114

>  <inspiration_ids>  (401) 
[114, 111]

>  <energy_score>  (401) 
34.38622206683982

>  <distance_score>  (401) 
2.230617714103831

>  <path>  (401) 
/opt/xchem-fragalysis-2/maxwin/BulkDock/SCRATCH/505734/C3399-P114/C3399-P114.minimised.mol

>  <scratch_subdir>  (401) 
/opt/xchem-fragalysis-2/maxwin/BulkDock/SCRATCH/505734/C3399-P114

>  <fragmenstein_runtime>  (401) 
15.857893943786621

>  <fragmenstein_outcome>  (401) 
too moved

>  <fragmenstein_mode>  (401) 
expansion

>  <fragmenstein_error>  (401) 


$$$$
C3399-P111
     RDKit          3D

 40 42  0  0  0  0  0  0  0  0999 V2000
   16.9744    1.9287   12.1223 C   0  0  0  0  0  0  0  0  0  0  0  0
   15.7232    1.5140   12.8887 C   0  0  0  0  0  0  0  0  0  0  0  0
   14.5121    1.6170   11.9607 C   0  0  0  0  0  0  0  0  0  0  0  0
   15.5593    2.4577   13.9473 O   0  0  0  0  0  0  0  0  0  0  0  0
   14.6217    2.1598   14.8619 C   0  0  0  0  0  0  0  0  0  0  0  0
   13.9979    2.9881   15.5038 O   0  0  0  0  0  0  0  0  0  0  0  0
   14.4343    0.7389   15.0850 C   0  0  0  0  0  0  0  0  0  0  0  0
   13.4439    0.3430   15.9600 C   0  0  0  0  0  0  0  0  0  0  0  0
   13.2270   -1.0024   16.1269 C   0  0  0  0  0  0  0  0  0  0  0  0
   11.9994   -1.4219   16.5356 O   0  0  0  0  0  0  0  0  0  0  0  0
   11.0982   -1.2345   15.4377 C   0  0  0  0  0  0  0  0  0  0  0  0
   10.2339    0.0081   15.6828 C   0  0  0  0  0  0  0  0  0  0  0  0
    9.7031    0.5306   14.4617 N   0  0  0  0  0  0  0  0  0  0  0  0
    8.7469   -0.1125   13.7968 C   0  0  0  0  0  0  0  0  0  0  0  0
    8.4849    0.1817   12.5185 N   0  0  0  0  0  0  0  0  0  0  0  0
    7.4864   -0.6286   12.0523 C   0  0  0  0  0  0  0  0  0  0  0  0
    7.0594   -1.3950   13.0041 N   0  0  0  0  0  0  0  0  0  0  0  0
    7.9352   -1.1612   14.0028 C   0  0  0  0  0  0  0  0  0  0  0  0
    7.6430   -2.4686   15.1822 I   0  0  0  0  0  0  0  0  0  0  0  0
   14.1692   -1.9201   15.6969 C   0  0  0  0  0  0  0  0  0  0  0  0
   14.0953   -3.1851   16.1748 O   0  0  0  0  0  0  0  0  0  0  0  0
   15.1383   -1.5313   14.7821 C   0  0  0  0  0  0  0  0  0  0  0  0
   15.1908   -0.1915   14.3953 C   0  0  0  0  0  0  0  0  0  0  0  0
   15.9489    0.1647   13.3203 O   0  0  0  0  0  0  0  0  0  0  0  0
   17.8535    1.8848   12.7764 H   0  0  0  0  0  0  0  0  0  0  0  0
   17.1687    1.2589   11.2776 H   0  0  0  0  0  0  0  0  0  0  0  0
   16.8997    2.9579   11.7548 H   0  0  0  0  0  0  0  0  0  0  0  0
   14.3577    2.6463   11.6190 H   0  0  0  0  0  0  0  0  0  0  0  0
   13.5847    1.3024   12.4516 H   0  0  0  0  0  0  0  0  0  0  0  0
   14.6327    0.9658   11.0878 H   0  0  0  0  0  0  0  0  0  0  0  0
   12.8114    1.0820   16.4377 H   0  0  0  0  0  0  0  0  0  0  0  0
   10.5059   -2.1454   15.3843 H   0  0  0  0  0  0  0  0  0  0  0  0
   11.6109   -1.1753   14.4645 H   0  0  0  0  0  0  0  0  0  0  0  0
    9.4219   -0.1869   16.3840 H   0  0  0  0  0  0  0  0  0  0  0  0
   10.7989    0.8107   16.1553 H   0  0  0  0  0  0  0  0  0  0  0  0
   10.3610    1.0592   13.8999 H   0  0  0  0  0  0  0  0  0  0  0  0
    7.0898   -0.6945   11.0528 H   0  0  0  0  0  0  0  0  0  0  0  0
    6.4014   -2.1438   12.9420 H   0  0  0  0  0  0  0  0  0  0  0  0
   14.8521   -3.6969   15.8455 H   0  0  0  0  0  0  0  0  0  0  0  0
   15.8051   -2.2533   14.3209 H   0  0  0  0  0  0  0  0  0  0  0  0
  1  2  1  0
  2  3  1  0
  2  4  1  0
  4  5  1  0
  5  6  2  0
  5  7  1  0
  7  8  2  0
  8  9  1  0
  9 10  1  0
 10 11  1  0
 11 12  1  0
 12 13  1  0
 13 14  1  0
 14 15  1  0
 15 16  2  0
 16 17  1  0
 17 18  1  0
 18 19  1  0
  9 20  2  0
 20 21  1  0
 20 22  1  0
 22 23  2  0
 23 24  1  0
 24  2  1  0
 23  7  1  0
 18 14  2  0
  1 25  1  0
  1 26  1  0
  1 27  1  0
  3 28  1  0
  3 29  1  0
  3 30  1  0
  8 31  1  0
 11 32  1  0
 11 33  1  0
 12 34  1  0
 12 35  1  0
 13 36  1  0
 16 37  1  0
 17 38  1  0
 21 39  1  0
 22 40  1  0
M  END
>  <Energy>  (402) 
70.056606887971313

>  <compound_id>  (402) 
3399

>  <target_id>  (402) 
1

>  <reference_id>  (402) 
111

>  <inspiration_ids>  (402) 
[114, 111]

>  <energy_score>  (402) 
40.99462811087341

>  <distance_score>  (402) 
2.24783844797208

>  <path>  (402) 
/opt/xchem-fragalysis-2/maxwin/BulkDock/SCRATCH/505734/C3399-P111/C3399-P111.minimised.mol

>  <scratch_subdir>  (402) 
/opt/xchem-fragalysis-2/maxwin/BulkDock/SCRATCH/505734/C3399-P111

>  <fragmenstein_runtime>  (402) 
15.680915355682373

>  <fragmenstein_outcome>  (402) 
too moved

>  <fragmenstein_mode>  (402) 
expansion

>  <fragmenstein_error>  (402) 


$$$$
C3211-P114
     RDKit          3D

 36 38  0  0  0  0  0  0  0  0999 V2000
   16.0556   -2.2442   15.1800 I   0  0  0  0  0  0  0  0  0  0  0  0
   14.1775   -1.6642   15.7161 C   0  0  0  0  0  0  0  0  0  0  0  0
   13.0672   -1.5656   14.9324 N   0  0  0  0  0  0  0  0  0  0  0  0
   12.0772   -1.0479   15.7110 C   0  0  0  0  0  0  0  0  0  0  0  0
   12.5116   -0.8203   16.9333 N   0  0  0  0  0  0  0  0  0  0  0  0
   13.8089   -1.2454   16.9647 C   0  0  0  0  0  0  0  0  0  0  0  0
   14.6160   -1.3084   18.0511 N   0  0  0  0  0  0  0  0  0  0  0  0
   14.7163   -0.2618   19.0717 C   0  0  0  0  0  0  0  0  0  0  0  0
   15.6673    0.8921   18.6365 C   0  0  0  0  0  0  0  0  0  0  0  0
   15.1421    2.2822   18.8140 N   0  0  0  0  0  0  0  0  0  0  0  0
   15.7995    3.2133   17.8516 C   0  0  0  0  0  0  0  0  0  0  0  0
   14.7533    3.5818   16.9099 N   0  0  0  0  0  0  0  0  0  0  0  0
   15.1294    3.8669   15.5396 C   0  0  0  0  0  0  0  0  0  0  0  0
   13.8551    4.0947   14.6711 C   0  0  0  0  0  0  0  0  0  0  0  0
   12.8447    3.0105   14.7370 N   0  0  0  0  0  0  0  0  0  0  0  0
   12.5432    2.7497   16.1687 C   0  0  0  0  0  0  0  0  0  0  0  0
   13.8348    2.4599   16.9476 C   0  0  0  0  0  0  0  0  0  0  0  0
   13.7240    2.2688   18.3746 N   0  0  0  0  0  0  0  0  0  0  0  0
   12.9893   -1.8240   13.9586 H   0  0  0  0  0  0  0  0  0  0  0  0
   11.0813   -0.8564   15.3327 H   0  0  0  0  0  0  0  0  0  0  0  0
   15.5086   -1.7745   17.9149 H   0  0  0  0  0  0  0  0  0  0  0  0
   13.7297    0.0860   19.3611 H   0  0  0  0  0  0  0  0  0  0  0  0
   15.1320   -0.7205   19.9773 H   0  0  0  0  0  0  0  0  0  0  0  0
   15.9816    0.7175   17.5988 H   0  0  0  0  0  0  0  0  0  0  0  0
   16.5849    0.8224   19.2345 H   0  0  0  0  0  0  0  0  0  0  0  0
   16.6743    2.7645   17.3649 H   0  0  0  0  0  0  0  0  0  0  0  0
   16.1392    4.1042   18.3903 H   0  0  0  0  0  0  0  0  0  0  0  0
   15.7513    4.7681   15.4989 H   0  0  0  0  0  0  0  0  0  0  0  0
   15.7127    3.0429   15.1081 H   0  0  0  0  0  0  0  0  0  0  0  0
   14.1580    4.2179   13.6252 H   0  0  0  0  0  0  0  0  0  0  0  0
   13.3762    5.0364   14.9689 H   0  0  0  0  0  0  0  0  0  0  0  0
   13.2759    2.1633   14.3662 H   0  0  0  0  0  0  0  0  0  0  0  0
   12.0128    3.6138   16.5890 H   0  0  0  0  0  0  0  0  0  0  0  0
   11.8563    1.9003   16.2334 H   0  0  0  0  0  0  0  0  0  0  0  0
   14.2792    1.5700   16.4798 H   0  0  0  0  0  0  0  0  0  0  0  0
   13.2361    3.0873   18.7518 H   0  0  0  0  0  0  0  0  0  0  0  0
  1  2  1  0
  2  3  1  0
  3  4  1  0
  4  5  2  0
  5  6  1  0
  6  7  1  0
  7  8  1  0
  8  9  1  0
  9 10  1  0
 10 11  1  0
 11 12  1  0
 12 13  1  0
 13 14  1  0
 14 15  1  0
 15 16  1  0
 16 17  1  0
 17 18  1  0
  6  2  2  0
 18 10  1  0
 17 12  1  0
  3 19  1  0
  4 20  1  0
  7 21  1  0
  8 22  1  0
  8 23  1  0
  9 24  1  0
  9 25  1  0
 11 26  1  0
 11 27  1  0
 13 28  1  0
 13 29  1  0
 14 30  1  0
 14 31  1  0
 15 32  1  0
 16 33  1  0
 16 34  1  0
 17 35  1  0
 18 36  1  0
M  END
>  <Energy>  (403) 
81.255240202939277

>  <compound_id>  (403) 
3211

>  <target_id>  (403) 
1

>  <reference_id>  (403) 
114

>  <inspiration_ids>  (403) 
[114, 113]

>  <energy_score>  (403) 
-29.408726167359703

>  <distance_score>  (403) 
2.1595015585015975

>  <path>  (403) 
/opt/xchem-fragalysis-2/maxwin/BulkDock/SCRATCH/505734/C3211-P114/C3211-P114.minimised.mol

>  <scratch_subdir>  (403) 
/opt/xchem-fragalysis-2/maxwin/BulkDock/SCRATCH/505734/C3211-P114

>  <fragmenstein_runtime>  (403) 
4.033008098602295

>  <fragmenstein_outcome>  (403) 
too moved

>  <fragmenstein_mode>  (403) 
expansion

>  <fragmenstein_error>  (403) 


$$$$
C3211-P113
     RDKit          3D

 36 38  0  0  0  0  0  0  0  0999 V2000
   14.6279   -2.2674   17.8736 I   0  0  0  0  0  0  0  0  0  0  0  0
   13.8172   -1.5961   16.1126 C   0  0  0  0  0  0  0  0  0  0  0  0
   12.4890   -1.6140   15.7918 N   0  0  0  0  0  0  0  0  0  0  0  0
   12.3771   -1.2295   14.4870 C   0  0  0  0  0  0  0  0  0  0  0  0
   13.5559   -0.9431   13.9745 N   0  0  0  0  0  0  0  0  0  0  0  0
   14.4542   -1.1300   14.9911 C   0  0  0  0  0  0  0  0  0  0  0  0
   15.7861   -1.0560   14.7480 N   0  0  0  0  0  0  0  0  0  0  0  0
   16.4673    0.2547   14.8439 C   0  0  0  0  0  0  0  0  0  0  0  0
   17.0720    0.5995   16.2410 C   0  0  0  0  0  0  0  0  0  0  0  0
   16.4879    1.6623   17.1055 N   0  0  0  0  0  0  0  0  0  0  0  0
   16.3790    2.9902   16.4699 C   0  0  0  0  0  0  0  0  0  0  0  0
   14.9984    3.3726   16.6934 N   0  0  0  0  0  0  0  0  0  0  0  0
   14.4038    4.3102   15.7533 C   0  0  0  0  0  0  0  0  0  0  0  0
   12.8862    4.4654   16.0483 C   0  0  0  0  0  0  0  0  0  0  0  0
   12.1236    3.1980   16.0933 N   0  0  0  0  0  0  0  0  0  0  0  0
   12.8276    2.2300   16.9652 C   0  0  0  0  0  0  0  0  0  0  0  0
   14.3050    2.1007   16.6009 C   0  0  0  0  0  0  0  0  0  0  0  0
   15.1188    1.2732   17.4690 N   0  0  0  0  0  0  0  0  0  0  0  0
   11.7470   -1.9574   16.3811 H   0  0  0  0  0  0  0  0  0  0  0  0
   11.4303   -1.1999   13.9609 H   0  0  0  0  0  0  0  0  0  0  0  0
   15.9403   -1.3829   13.7940 H   0  0  0  0  0  0  0  0  0  0  0  0
   17.3250    0.1873   14.1598 H   0  0  0  0  0  0  0  0  0  0  0  0
   15.8559    1.0535   14.4166 H   0  0  0  0  0  0  0  0  0  0  0  0
   18.1089    0.9170   16.0631 H   0  0  0  0  0  0  0  0  0  0  0  0
   17.1676   -0.3179   16.8346 H   0  0  0  0  0  0  0  0  0  0  0  0
   16.6338    2.9615   15.4036 H   0  0  0  0  0  0  0  0  0  0  0  0
   17.0585    3.6948   16.9600 H   0  0  0  0  0  0  0  0  0  0  0  0
   14.8855    5.2899   15.8478 H   0  0  0  0  0  0  0  0  0  0  0  0
   14.5362    3.9766   14.7156 H   0  0  0  0  0  0  0  0  0  0  0  0
   12.4398    5.1093   15.2825 H   0  0  0  0  0  0  0  0  0  0  0  0
   12.7629    4.9825   17.0090 H   0  0  0  0  0  0  0  0  0  0  0  0
   11.2157    3.3908   16.5138 H   0  0  0  0  0  0  0  0  0  0  0  0
   12.7238    2.5392   18.0107 H   0  0  0  0  0  0  0  0  0  0  0  0
   12.3416    1.2577   16.8517 H   0  0  0  0  0  0  0  0  0  0  0  0
   14.3231    1.7112   15.5773 H   0  0  0  0  0  0  0  0  0  0  0  0
   14.9473    1.5966   18.4232 H   0  0  0  0  0  0  0  0  0  0  0  0
  1  2  1  0
  2  3  1  0
  3  4  1  0
  4  5  2  0
  5  6  1  0
  6  7  1  0
  7  8  1  0
  8  9  1  0
  9 10  1  0
 10 11  1  0
 11 12  1  0
 12 13  1  0
 13 14  1  0
 14 15  1  0
 15 16  1  0
 16 17  1  0
 17 18  1  0
  6  2  2  0
 18 10  1  0
 17 12  1  0
  3 19  1  0
  4 20  1  0
  7 21  1  0
  8 22  1  0
  8 23  1  0
  9 24  1  0
  9 25  1  0
 11 26  1  0
 11 27  1  0
 13 28  1  0
 13 29  1  0
 14 30  1  0
 14 31  1  0
 15 32  1  0
 16 33  1  0
 16 34  1  0
 17 35  1  0
 18 36  1  0
M  END
>  <Energy>  (404) 
81.745831678124134

>  <compound_id>  (404) 
3211

>  <target_id>  (404) 
1

>  <reference_id>  (404) 
113

>  <inspiration_ids>  (404) 
[114, 113]

>  <energy_score>  (404) 
-28.918134692174817

>  <distance_score>  (404) 
1.8811692799976247

>  <path>  (404) 
/opt/xchem-fragalysis-2/maxwin/BulkDock/SCRATCH/505734/C3211-P113/C3211-P113.minimised.mol

>  <scratch_subdir>  (404) 
/opt/xchem-fragalysis-2/maxwin/BulkDock/SCRATCH/505734/C3211-P113

>  <fragmenstein_runtime>  (404) 
4.186452150344849

>  <fragmenstein_outcome>  (404) 
too moved

>  <fragmenstein_mode>  (404) 
expansion

>  <fragmenstein_error>  (404) 


$$$$
C3402-P115
     RDKit          3D

 57 60  0  0  0  0  0  0  0  0999 V2000
  -16.9093  -22.5958   31.1739 C   0  0  0  0  0  0  0  0  0  0  0  0
  -16.4039  -21.2628   31.2499 O   0  0  0  0  0  0  0  0  0  0  0  0
  -15.3148  -21.2009   32.0602 C   0  0  0  0  0  0  0  0  0  0  0  0
  -15.3599  -20.3952   33.1910 C   0  0  0  0  0  0  0  0  0  0  0  0
  -14.1597  -20.1294   33.8691 C   0  0  0  0  0  0  0  0  0  0  0  0
  -12.9583  -20.8233   33.5385 C   0  0  0  0  0  0  0  0  0  0  0  0
  -11.5200  -20.2481   33.6930 C   0  0  0  0  0  0  0  0  0  0  0  0
  -10.6059  -20.7896   32.6059 C   0  0  0  0  0  0  0  0  0  0  0  0
  -10.2926  -22.1948   33.0068 C   0  0  0  0  0  0  0  0  0  0  0  0
   -9.2381  -22.1930   34.0347 C   0  0  0  0  0  0  0  0  0  0  0  0
   -9.3650  -23.4115   34.8364 N   0  0  0  0  0  0  0  0  0  0  0  0
  -10.1117  -24.6335   34.4067 C   0  0  0  0  0  0  0  0  0  0  0  0
   -9.6646  -25.4035   33.1288 C   0  0  0  0  0  0  0  0  0  0  0  0
   -9.7064  -26.8757   33.2942 N   0  0  0  0  0  0  0  0  0  0  0  0
   -8.6520  -27.5231   33.8354 C   0  0  0  0  0  0  0  0  0  0  0  0
   -7.5813  -26.8331   34.2812 N   0  0  0  0  0  0  0  0  0  0  0  0
   -6.7091  -27.7231   34.6887 C   0  0  0  0  0  0  0  0  0  0  0  0
   -7.1793  -28.9786   34.5101 N   0  0  0  0  0  0  0  0  0  0  0  0
   -8.4564  -28.8652   34.0490 C   0  0  0  0  0  0  0  0  0  0  0  0
   -9.6657  -30.4776   33.8802 I   0  0  0  0  0  0  0  0  0  0  0  0
   -9.9869  -22.8458   35.9738 N   0  0  0  0  0  0  0  0  0  0  0  0
   -9.2232  -21.6488   36.2376 C   0  0  0  0  0  0  0  0  0  0  0  0
   -9.5711  -20.7301   37.2876 N   0  0  0  0  0  0  0  0  0  0  0  0
   -9.3464  -21.0112   34.9692 N   0  0  0  0  0  0  0  0  0  0  0  0
  -10.5909  -20.1841   34.9055 C   0  0  0  0  0  0  0  0  0  0  0  0
  -13.1273  -21.8653   32.6690 C   0  0  0  0  0  0  0  0  0  0  0  0
  -14.1173  -21.8136   31.7422 C   0  0  0  0  0  0  0  0  0  0  0  0
  -13.8494  -22.4211   30.5497 O   0  0  0  0  0  0  0  0  0  0  0  0
  -12.4711  -22.3994   30.0845 C   0  0  0  0  0  0  0  0  0  0  0  0
  -17.9229  -22.5365   30.7647 H   0  0  0  0  0  0  0  0  0  0  0  0
  -16.9834  -23.0651   32.1605 H   0  0  0  0  0  0  0  0  0  0  0  0
  -16.3214  -23.2073   30.4876 H   0  0  0  0  0  0  0  0  0  0  0  0
  -16.2635  -19.8436   33.4336 H   0  0  0  0  0  0  0  0  0  0  0  0
  -14.1386  -19.2746   34.5463 H   0  0  0  0  0  0  0  0  0  0  0  0
  -11.7007  -19.1969   33.5343 H   0  0  0  0  0  0  0  0  0  0  0  0
   -9.7071  -20.1857   32.5862 H   0  0  0  0  0  0  0  0  0  0  0  0
  -11.0189  -20.7712   31.6141 H   0  0  0  0  0  0  0  0  0  0  0  0
  -11.1244  -22.6261   33.5431 H   0  0  0  0  0  0  0  0  0  0  0  0
  -10.1187  -22.8603   32.1665 H   0  0  0  0  0  0  0  0  0  0  0  0
   -8.2570  -22.1528   33.5617 H   0  0  0  0  0  0  0  0  0  0  0  0
  -10.0695  -25.3469   35.2314 H   0  0  0  0  0  0  0  0  0  0  0  0
  -11.1904  -24.4399   34.3220 H   0  0  0  0  0  0  0  0  0  0  0  0
  -10.3705  -25.1520   32.3272 H   0  0  0  0  0  0  0  0  0  0  0  0
   -8.6887  -25.0872   32.7537 H   0  0  0  0  0  0  0  0  0  0  0  0
  -10.0984  -27.3387   32.4837 H   0  0  0  0  0  0  0  0  0  0  0  0
   -5.7392  -27.5027   35.1098 H   0  0  0  0  0  0  0  0  0  0  0  0
   -6.7082  -29.8395   34.7421 H   0  0  0  0  0  0  0  0  0  0  0  0
  -10.0778  -23.4877   36.7440 H   0  0  0  0  0  0  0  0  0  0  0  0
   -8.2252  -21.9276   36.5227 H   0  0  0  0  0  0  0  0  0  0  0  0
   -9.0574  -20.9488   38.1336 H   0  0  0  0  0  0  0  0  0  0  0  0
   -9.1510  -19.8437   37.0007 H   0  0  0  0  0  0  0  0  0  0  0  0
  -10.1660  -19.1661   34.8891 H   0  0  0  0  0  0  0  0  0  0  0  0
  -11.1847  -20.1466   35.8063 H   0  0  0  0  0  0  0  0  0  0  0  0
  -12.4260  -22.6441   32.4644 H   0  0  0  0  0  0  0  0  0  0  0  0
  -12.3955  -22.5695   29.0106 H   0  0  0  0  0  0  0  0  0  0  0  0
  -11.8793  -23.1833   30.5635 H   0  0  0  0  0  0  0  0  0  0  0  0
  -12.0367  -21.4126   30.1865 H   0  0  0  0  0  0  0  0  0  0  0  0
  1  2  1  0
  2  3  1  0
  3  4  2  0
  4  5  1  0
  5  6  2  0
  6  7  1  0
  7  8  1  0
  8  9  1  0
  9 10  1  0
 10 11  1  0
 11 12  1  0
 12 13  1  0
 13 14  1  0
 14 15  1  0
 15 16  1  0
 16 17  2  0
 17 18  1  0
 18 19  1  0
 19 20  1  0
 11 21  1  0
 21 22  1  0
 22 23  1  0
 22 24  1  0
 24 25  1  0
  6 26  1  0
 26 27  2  0
 27 28  1  0
 28 29  1  0
 27  3  1  0
 25  7  1  0
 24 10  1  0
 19 15  2  0
  1 30  1  0
  1 31  1  0
  1 32  1  0
  4 33  1  0
  5 34  1  0
  7 35  1  0
  8 36  1  0
  8 37  1  0
  9 38  1  0
  9 39  1  0
 10 40  1  0
 12 41  1  0
 12 42  1  0
 13 43  1  0
 13 44  1  0
 14 45  1  0
 17 46  1  0
 18 47  1  0
 21 48  1  0
 22 49  1  0
 23 50  1  0
 23 51  1  0
 25 52  1  0
 25 53  1  0
 26 54  1  0
 29 55  1  0
 29 56  1  0
 29 57  1  0
M  END
>  <Energy>  (405) 
61.754984654740539

>  <compound_id>  (405) 
3402

>  <target_id>  (405) 
1

>  <reference_id>  (405) 
115

>  <inspiration_ids>  (405) 
[115, 35]

>  <energy_score>  (405) 
61.06368388364706

>  <distance_score>  (405) 
4.551754143625009

>  <path>  (405) 
/opt/xchem-fragalysis-2/maxwin/BulkDock/SCRATCH/505734/C3402-P115/C3402-P115.minimised.mol

>  <scratch_subdir>  (405) 
/opt/xchem-fragalysis-2/maxwin/BulkDock/SCRATCH/505734/C3402-P115

>  <fragmenstein_runtime>  (405) 
26.651282787322998

>  <fragmenstein_outcome>  (405) 
too moved

>  <fragmenstein_mode>  (405) 
expansion

>  <fragmenstein_error>  (405) 


$$$$
C3402-P35
     RDKit          3D

 57 60  0  0  0  0  0  0  0  0999 V2000
  -14.5676  -25.2767   31.2241 C   0  0  0  0  0  0  0  0  0  0  0  0
  -13.3415  -24.6377   31.0328 O   0  0  0  0  0  0  0  0  0  0  0  0
  -13.1571  -23.4455   31.6468 C   0  0  0  0  0  0  0  0  0  0  0  0
  -13.9665  -22.8526   32.6022 C   0  0  0  0  0  0  0  0  0  0  0  0
  -13.5467  -21.7034   33.2585 C   0  0  0  0  0  0  0  0  0  0  0  0
  -12.3028  -21.1463   32.9764 C   0  0  0  0  0  0  0  0  0  0  0  0
  -11.7551  -20.0698   33.9005 C   0  0  0  0  0  0  0  0  0  0  0  0
  -10.3531  -19.6251   33.5536 C   0  0  0  0  0  0  0  0  0  0  0  0
   -9.3221  -20.6856   33.6634 C   0  0  0  0  0  0  0  0  0  0  0  0
   -9.8029  -21.8204   34.4631 C   0  0  0  0  0  0  0  0  0  0  0  0
  -10.5381  -23.0617   34.3490 N   0  0  0  0  0  0  0  0  0  0  0  0
   -9.8415  -24.1205   33.5524 C   0  0  0  0  0  0  0  0  0  0  0  0
  -10.4811  -25.3749   32.9156 C   0  0  0  0  0  0  0  0  0  0  0  0
   -9.4989  -26.1754   32.1702 N   0  0  0  0  0  0  0  0  0  0  0  0
   -9.8840  -26.7248   31.0087 C   0  0  0  0  0  0  0  0  0  0  0  0
   -9.2914  -26.2306   29.8868 N   0  0  0  0  0  0  0  0  0  0  0  0
   -9.7777  -26.9517   28.9115 C   0  0  0  0  0  0  0  0  0  0  0  0
  -10.6238  -27.9070   29.3648 N   0  0  0  0  0  0  0  0  0  0  0  0
  -10.8100  -27.6913   30.6960 C   0  0  0  0  0  0  0  0  0  0  0  0
  -12.2045  -28.7427   31.7510 I   0  0  0  0  0  0  0  0  0  0  0  0
  -10.3631  -23.3859   35.7846 N   0  0  0  0  0  0  0  0  0  0  0  0
  -10.4968  -22.1793   36.5213 C   0  0  0  0  0  0  0  0  0  0  0  0
   -9.3944  -21.7765   37.3222 N   0  0  0  0  0  0  0  0  0  0  0  0
  -10.3800  -21.1399   35.6126 N   0  0  0  0  0  0  0  0  0  0  0  0
  -11.6823  -20.5705   35.3209 C   0  0  0  0  0  0  0  0  0  0  0  0
  -11.5859  -21.6675   31.8876 C   0  0  0  0  0  0  0  0  0  0  0  0
  -11.9916  -22.8251   31.2607 C   0  0  0  0  0  0  0  0  0  0  0  0
  -11.1586  -23.4373   30.3695 O   0  0  0  0  0  0  0  0  0  0  0  0
  -11.6292  -23.2973   29.0281 C   0  0  0  0  0  0  0  0  0  0  0  0
  -15.3659  -24.7477   30.7004 H   0  0  0  0  0  0  0  0  0  0  0  0
  -14.8542  -25.4052   32.2695 H   0  0  0  0  0  0  0  0  0  0  0  0
  -14.5064  -26.2744   30.7793 H   0  0  0  0  0  0  0  0  0  0  0  0
  -14.9117  -23.2909   32.9025 H   0  0  0  0  0  0  0  0  0  0  0  0
  -14.1835  -21.2852   34.0325 H   0  0  0  0  0  0  0  0  0  0  0  0
  -12.4231  -19.2073   33.9131 H   0  0  0  0  0  0  0  0  0  0  0  0
  -10.0618  -18.7289   34.1137 H   0  0  0  0  0  0  0  0  0  0  0  0
  -10.2873  -19.4585   32.5180 H   0  0  0  0  0  0  0  0  0  0  0  0
   -9.0295  -21.0605   32.7102 H   0  0  0  0  0  0  0  0  0  0  0  0
   -8.4199  -20.2307   34.0898 H   0  0  0  0  0  0  0  0  0  0  0  0
   -8.8571  -22.2495   34.6378 H   0  0  0  0  0  0  0  0  0  0  0  0
   -9.2688  -23.6302   32.7640 H   0  0  0  0  0  0  0  0  0  0  0  0
   -9.1788  -24.6160   34.2547 H   0  0  0  0  0  0  0  0  0  0  0  0
  -10.8035  -26.0570   33.6888 H   0  0  0  0  0  0  0  0  0  0  0  0
  -11.3140  -25.1145   32.2831 H   0  0  0  0  0  0  0  0  0  0  0  0
   -8.6301  -25.6609   32.0377 H   0  0  0  0  0  0  0  0  0  0  0  0
   -9.5342  -26.8670   27.8661 H   0  0  0  0  0  0  0  0  0  0  0  0
  -11.0985  -28.5978   28.8059 H   0  0  0  0  0  0  0  0  0  0  0  0
   -9.4082  -23.6560   35.9623 H   0  0  0  0  0  0  0  0  0  0  0  0
  -11.4082  -22.3753   37.0470 H   0  0  0  0  0  0  0  0  0  0  0  0
   -9.6985  -20.9918   37.8945 H   0  0  0  0  0  0  0  0  0  0  0  0
   -8.7555  -21.3082   36.6865 H   0  0  0  0  0  0  0  0  0  0  0  0
  -11.8138  -19.7125   35.9909 H   0  0  0  0  0  0  0  0  0  0  0  0
  -12.4800  -21.2897   35.5125 H   0  0  0  0  0  0  0  0  0  0  0  0
  -10.6594  -21.2474   31.5420 H   0  0  0  0  0  0  0  0  0  0  0  0
  -12.5082  -23.9185   28.8350 H   0  0  0  0  0  0  0  0  0  0  0  0
  -10.8314  -23.6339   28.3588 H   0  0  0  0  0  0  0  0  0  0  0  0
  -11.8448  -22.2495   28.7918 H   0  0  0  0  0  0  0  0  0  0  0  0
  1  2  1  0
  2  3  1  0
  3  4  2  0
  4  5  1  0
  5  6  2  0
  6  7  1  0
  7  8  1  0
  8  9  1  0
  9 10  1  0
 10 11  1  0
 11 12  1  0
 12 13  1  0
 13 14  1  0
 14 15  1  0
 15 16  1  0
 16 17  2  0
 17 18  1  0
 18 19  1  0
 19 20  1  0
 11 21  1  0
 21 22  1  0
 22 23  1  0
 22 24  1  0
 24 25  1  0
  6 26  1  0
 26 27  2  0
 27 28  1  0
 28 29  1  0
 27  3  1  0
 25  7  1  0
 24 10  1  0
 19 15  2  0
  1 30  1  0
  1 31  1  0
  1 32  1  0
  4 33  1  0
  5 34  1  0
  7 35  1  0
  8 36  1  0
  8 37  1  0
  9 38  1  0
  9 39  1  0
 10 40  1  0
 12 41  1  0
 12 42  1  0
 13 43  1  0
 13 44  1  0
 14 45  1  0
 17 46  1  0
 18 47  1  0
 21 48  1  0
 22 49  1  0
 23 50  1  0
 23 51  1  0
 25 52  1  0
 25 53  1  0
 26 54  1  0
 29 55  1  0
 29 56  1  0
 29 57  1  0
M  END
>  <Energy>  (406) 
35.642815587843202

>  <compound_id>  (406) 
3402

>  <target_id>  (406) 
1

>  <reference_id>  (406) 
35

>  <inspiration_ids>  (406) 
[115, 35]

>  <energy_score>  (406) 
37.47586326768533

>  <distance_score>  (406) 
3.048735145079379

>  <path>  (406) 
/opt/xchem-fragalysis-2/maxwin/BulkDock/SCRATCH/505734/C3402-P35/C3402-P35.minimised.mol

>  <scratch_subdir>  (406) 
/opt/xchem-fragalysis-2/maxwin/BulkDock/SCRATCH/505734/C3402-P35

>  <fragmenstein_runtime>  (406) 
20.243837594985962

>  <fragmenstein_outcome>  (406) 
too moved

>  <fragmenstein_mode>  (406) 
expansion

>  <fragmenstein_error>  (406) 


$$$$
C3403-P115
     RDKit          3D

 47 49  0  0  0  0  0  0  0  0999 V2000
  -10.7943  -21.8442   33.2397 C   0  0  0  0  0  0  0  0  0  0  0  0
  -10.8753  -22.0838   31.9618 N   0  0  0  0  0  0  0  0  0  0  0  0
  -10.3496  -22.1297   33.8519 C   0  0  0  0  0  0  0  0  0  0  0  0
  -10.1315  -23.8534   34.0493 C   0  0  0  0  0  0  0  0  0  0  0  0
  -10.7916  -24.5043   35.0720 C   0  0  0  0  0  0  0  0  0  0  0  0
  -10.6289  -25.8756   35.1684 C   0  0  0  0  0  0  0  0  0  0  0  0
   -9.8567  -26.6087   34.2598 C   0  0  0  0  0  0  0  0  0  0  0  0
   -9.2689  -25.9615   33.1952 C   0  0  0  0  0  0  0  0  0  0  0  0
   -9.4112  -24.5835   33.0905 C   0  0  0  0  0  0  0  0  0  0  0  0
  -12.2518  -22.0951   31.1687 C   0  0  0  0  0  0  0  0  0  0  0  0
  -13.3533  -22.0265   31.5140 O   0  0  0  0  0  0  0  0  0  0  0  0
  -11.7514  -22.3336   29.7525 C   0  0  0  0  0  0  0  0  0  0  0  0
  -11.3594  -23.7671   29.5796 C   0  0  0  0  0  0  0  0  0  0  0  0
  -11.3501  -24.8089   30.5422 C   0  0  0  0  0  0  0  0  0  0  0  0
  -11.0499  -25.9969   30.0196 N   0  0  0  0  0  0  0  0  0  0  0  0
  -11.0129  -25.7253   28.7043 N   0  0  0  0  0  0  0  0  0  0  0  0
  -11.5960  -26.7086   27.8173 C   0  0  0  0  0  0  0  0  0  0  0  0
  -13.1095  -26.6652   27.9661 C   0  0  0  0  0  0  0  0  0  0  0  0
  -13.8458  -26.5482   26.7176 N   0  0  0  0  0  0  0  0  0  0  0  0
  -13.6089  -25.5218   25.8763 C   0  0  0  0  0  0  0  0  0  0  0  0
  -12.5202  -24.7190   25.9624 N   0  0  0  0  0  0  0  0  0  0  0  0
  -12.6739  -23.8444   24.9999 C   0  0  0  0  0  0  0  0  0  0  0  0
  -13.7932  -24.0915   24.2661 N   0  0  0  0  0  0  0  0  0  0  0  0
  -14.3969  -25.1793   24.8112 C   0  0  0  0  0  0  0  0  0  0  0  0
  -16.1640  -26.0030   24.1914 I   0  0  0  0  0  0  0  0  0  0  0  0
  -10.9165  -24.3904   28.4334 C   0  0  0  0  0  0  0  0  0  0  0  0
  -11.6344  -20.9039   33.4699 H   0  0  0  0  0  0  0  0  0  0  0  0
  -10.3396  -20.7111   32.8537 H   0  0  0  0  0  0  0  0  0  0  0  0
  -11.9882  -22.3250   33.3617 H   0  0  0  0  0  0  0  0  0  0  0  0
  -10.9047  -21.8819   34.9558 H   0  0  0  0  0  0  0  0  0  0  0  0
   -9.1649  -21.8684   33.9897 H   0  0  0  0  0  0  0  0  0  0  0  0
  -11.4310  -24.0003   35.7831 H   0  0  0  0  0  0  0  0  0  0  0  0
  -11.1303  -26.3821   35.9873 H   0  0  0  0  0  0  0  0  0  0  0  0
   -9.7450  -27.6822   34.3686 H   0  0  0  0  0  0  0  0  0  0  0  0
   -8.7134  -26.5154   32.4445 H   0  0  0  0  0  0  0  0  0  0  0  0
   -8.9583  -24.1020   32.2412 H   0  0  0  0  0  0  0  0  0  0  0  0
  -10.9160  -21.6607   29.5423 H   0  0  0  0  0  0  0  0  0  0  0  0
  -12.5193  -22.0386   29.0450 H   0  0  0  0  0  0  0  0  0  0  0  0
  -11.5912  -24.7605   31.5960 H   0  0  0  0  0  0  0  0  0  0  0  0
  -11.1923  -26.5700   26.8121 H   0  0  0  0  0  0  0  0  0  0  0  0
  -11.2714  -27.6744   28.1849 H   0  0  0  0  0  0  0  0  0  0  0  0
  -13.4518  -25.8895   28.6529 H   0  0  0  0  0  0  0  0  0  0  0  0
  -13.4360  -27.6014   28.4383 H   0  0  0  0  0  0  0  0  0  0  0  0
  -13.7578  -27.4178   26.1840 H   0  0  0  0  0  0  0  0  0  0  0  0
  -12.0502  -22.9941   24.7893 H   0  0  0  0  0  0  0  0  0  0  0  0
  -14.1389  -23.5362   23.4981 H   0  0  0  0  0  0  0  0  0  0  0  0
  -10.7847  -24.0180   27.4299 H   0  0  0  0  0  0  0  0  0  0  0  0
  1  2  1  0
  2  3  1  0
  3  4  1  0
  4  5  2  0
  5  6  1  0
  6  7  2  0
  7  8  1  0
  8  9  2  0
  2 10  1  0
 10 11  2  0
 10 12  1  0
 12 13  1  0
 13 14  1  0
 14 15  2  0
 15 16  1  0
 16 17  1  0
 17 18  1  0
 18 19  1  0
 19 20  1  0
 20 21  1  0
 21 22  2  0
 22 23  1  0
 23 24  1  0
 24 25  1  0
 16 26  1  0
  9  4  1  0
 26 13  2  0
 24 20  2  0
  1 27  1  0
  1 28  1  0
  1 29  1  0
  3 30  1  0
  3 31  1  0
  5 32  1  0
  6 33  1  0
  7 34  1  0
  8 35  1  0
  9 36  1  0
 12 37  1  0
 12 38  1  0
 14 39  1  0
 17 40  1  0
 17 41  1  0
 18 42  1  0
 18 43  1  0
 19 44  1  0
 22 45  1  0
 23 46  1  0
 26 47  1  0
M  END
>  <Energy>  (407) 
777.50841189247649

>  <compound_id>  (407) 
3403

>  <target_id>  (407) 
1

>  <reference_id>  (407) 
115

>  <inspiration_ids>  (407) 
[115, 38]

>  <energy_score>  (407) 
643.2825556412232

>  <distance_score>  (407) 
5.6029094281556855

>  <path>  (407) 
/opt/xchem-fragalysis-2/maxwin/BulkDock/SCRATCH/505734/C3403-P115/C3403-P115.minimised.mol

>  <scratch_subdir>  (407) 
/opt/xchem-fragalysis-2/maxwin/BulkDock/SCRATCH/505734/C3403-P115

>  <fragmenstein_runtime>  (407) 
27.337581872940063

>  <fragmenstein_outcome>  (407) 
too moved

>  <fragmenstein_mode>  (407) 
expansion

>  <fragmenstein_error>  (407) 


$$$$
C3403-P38
     RDKit          3D

 47 49  0  0  0  0  0  0  0  0999 V2000
  -11.6792  -23.8560   26.5635 C   0  0  0  0  0  0  0  0  0  0  0  0
  -12.5707  -24.8823   27.8637 N   0  0  0  0  0  0  0  0  0  0  0  0
  -11.9218  -24.5554   26.6713 C   0  0  0  0  0  0  0  0  0  0  0  0
  -12.9898  -25.0313   25.2197 C   0  0  0  0  0  0  0  0  0  0  0  0
  -14.1625  -24.3437   24.9014 C   0  0  0  0  0  0  0  0  0  0  0  0
  -14.8920  -24.6675   23.7556 C   0  0  0  0  0  0  0  0  0  0  0  0
  -14.4397  -25.6657   22.9009 C   0  0  0  0  0  0  0  0  0  0  0  0
  -13.2524  -26.3292   23.1905 C   0  0  0  0  0  0  0  0  0  0  0  0
  -12.5245  -26.0064   24.3413 C   0  0  0  0  0  0  0  0  0  0  0  0
  -12.4381  -24.4703   29.5086 C   0  0  0  0  0  0  0  0  0  0  0  0
  -11.8067  -23.7060   30.0670 O   0  0  0  0  0  0  0  0  0  0  0  0
  -13.3784  -25.5335   30.0456 C   0  0  0  0  0  0  0  0  0  0  0  0
  -13.4567  -26.1317   31.8237 C   0  0  0  0  0  0  0  0  0  0  0  0
  -15.2781  -27.1528   32.9948 C   0  0  0  0  0  0  0  0  0  0  0  0
  -14.9779  -26.1166   34.6042 N   0  0  0  0  0  0  0  0  0  0  0  0
  -13.4986  -24.8284   34.2426 N   0  0  0  0  0  0  0  0  0  0  0  0
  -11.7744  -24.9245   34.2945 C   0  0  0  0  0  0  0  0  0  0  0  0
  -10.7211  -25.0738   33.1026 C   0  0  0  0  0  0  0  0  0  0  0  0
  -10.6700  -26.4035   32.5041 N   0  0  0  0  0  0  0  0  0  0  0  0
  -10.4627  -26.5236   31.1872 C   0  0  0  0  0  0  0  0  0  0  0  0
   -9.6613  -25.6397   30.5283 N   0  0  0  0  0  0  0  0  0  0  0  0
   -9.7967  -25.9508   29.2646 C   0  0  0  0  0  0  0  0  0  0  0  0
  -10.6613  -26.9846   29.0940 N   0  0  0  0  0  0  0  0  0  0  0  0
  -11.0579  -27.4200   30.3277 C   0  0  0  0  0  0  0  0  0  0  0  0
  -12.5084  -29.0297   30.6005 I   0  0  0  0  0  0  0  0  0  0  0  0
  -13.1960  -24.5973   32.5564 C   0  0  0  0  0  0  0  0  0  0  0  0
  -12.0833  -23.1170   25.6590 H   0  0  0  0  0  0  0  0  0  0  0  0
  -11.8959  -22.8330   27.2437 H   0  0  0  0  0  0  0  0  0  0  0  0
  -10.4870  -23.5636   26.8606 H   0  0  0  0  0  0  0  0  0  0  0  0
  -10.7878  -25.2919   26.5249 H   0  0  0  0  0  0  0  0  0  0  0  0
  -12.0867  -25.7505   26.6729 H   0  0  0  0  0  0  0  0  0  0  0  0
  -14.4910  -23.5101   25.4849 H   0  0  0  0  0  0  0  0  0  0  0  0
  -15.8025  -24.1216   23.5213 H   0  0  0  0  0  0  0  0  0  0  0  0
  -15.0032  -25.9189   22.0071 H   0  0  0  0  0  0  0  0  0  0  0  0
  -12.8906  -27.1071   22.5212 H   0  0  0  0  0  0  0  0  0  0  0  0
  -11.6299  -26.5664   24.5781 H   0  0  0  0  0  0  0  0  0  0  0  0
  -13.2688  -26.4255   29.4193 H   0  0  0  0  0  0  0  0  0  0  0  0
  -14.3429  -25.0510   29.8174 H   0  0  0  0  0  0  0  0  0  0  0  0
  -16.3493  -27.3398   32.7147 H   0  0  0  0  0  0  0  0  0  0  0  0
  -11.6798  -23.9005   34.6572 H   0  0  0  0  0  0  0  0  0  0  0  0
  -11.5194  -25.7252   34.9708 H   0  0  0  0  0  0  0  0  0  0  0  0
   -9.7246  -24.9336   33.5343 H   0  0  0  0  0  0  0  0  0  0  0  0
  -10.8045  -24.2654   32.3703 H   0  0  0  0  0  0  0  0  0  0  0  0
  -10.0961  -27.0671   33.0248 H   0  0  0  0  0  0  0  0  0  0  0  0
   -9.3138  -25.4505   28.4424 H   0  0  0  0  0  0  0  0  0  0  0  0
  -10.9842  -27.3535   28.2155 H   0  0  0  0  0  0  0  0  0  0  0  0
  -12.7896  -23.6347   32.2819 H   0  0  0  0  0  0  0  0  0  0  0  0
  1  2  1  0
  2  3  1  0
  3  4  1  0
  4  5  2  0
  5  6  1  0
  6  7  2  0
  7  8  1  0
  8  9  2  0
  2 10  1  0
 10 11  2  0
 10 12  1  0
 12 13  1  0
 13 14  1  0
 14 15  2  0
 15 16  1  0
 16 17  1  0
 17 18  1  0
 18 19  1  0
 19 20  1  0
 20 21  1  0
 21 22  2  0
 22 23  1  0
 23 24  1  0
 24 25  1  0
 16 26  1  0
  9  4  1  0
 26 13  2  0
 24 20  2  0
  1 27  1  0
  1 28  1  0
  1 29  1  0
  3 30  1  0
  3 31  1  0
  5 32  1  0
  6 33  1  0
  7 34  1  0
  8 35  1  0
  9 36  1  0
 12 37  1  0
 12 38  1  0
 14 39  1  0
 17 40  1  0
 17 41  1  0
 18 42  1  0
 18 43  1  0
 19 44  1  0
 22 45  1  0
 23 46  1  0
 26 47  1  0
M  END
>  <Energy>  (408) 
1657.2023901391458

>  <compound_id>  (408) 
3403

>  <target_id>  (408) 
1

>  <reference_id>  (408) 
38

>  <inspiration_ids>  (408) 
[115, 38]

>  <energy_score>  (408) 
1522.976533887882

>  <distance_score>  (408) 
3.556923341636975

>  <path>  (408) 
/opt/xchem-fragalysis-2/maxwin/BulkDock/SCRATCH/505734/C3403-P38/C3403-P38.minimised.mol

>  <scratch_subdir>  (408) 
/opt/xchem-fragalysis-2/maxwin/BulkDock/SCRATCH/505734/C3403-P38

>  <fragmenstein_runtime>  (408) 
42.26298451423645

>  <fragmenstein_outcome>  (408) 
too moved

>  <fragmenstein_mode>  (408) 
expansion

>  <fragmenstein_error>  (408) 


$$$$
C3403-P115
     RDKit          3D

 47 49  0  0  0  0  0  0  0  0999 V2000
   -9.5735  -20.2042   35.6331 C   0  0  0  0  0  0  0  0  0  0  0  0
  -10.2615  -21.4356   35.1441 N   0  0  0  0  0  0  0  0  0  0  0  0
  -10.9080  -20.4239   34.1914 C   0  0  0  0  0  0  0  0  0  0  0  0
  -11.6715  -21.0809   33.0549 C   0  0  0  0  0  0  0  0  0  0  0  0
  -10.9266  -21.3812   31.9142 C   0  0  0  0  0  0  0  0  0  0  0  0
  -11.4931  -21.8758   30.7642 C   0  0  0  0  0  0  0  0  0  0  0  0
  -12.8281  -22.1424   30.7872 C   0  0  0  0  0  0  0  0  0  0  0  0
  -13.6168  -21.8349   31.8932 C   0  0  0  0  0  0  0  0  0  0  0  0
  -13.0370  -21.3246   33.0374 C   0  0  0  0  0  0  0  0  0  0  0  0
   -9.7624  -22.5521   34.4136 C   0  0  0  0  0  0  0  0  0  0  0  0
   -8.6842  -22.7434   33.9291 O   0  0  0  0  0  0  0  0  0  0  0  0
  -10.7969  -23.7079   34.3629 C   0  0  0  0  0  0  0  0  0  0  0  0
  -10.4435  -24.7801   33.3773 C   0  0  0  0  0  0  0  0  0  0  0  0
   -9.5203  -25.8322   33.5319 C   0  0  0  0  0  0  0  0  0  0  0  0
   -9.4726  -26.6438   32.4762 N   0  0  0  0  0  0  0  0  0  0  0  0
  -10.3333  -26.0844   31.6071 N   0  0  0  0  0  0  0  0  0  0  0  0
  -10.5502  -26.7732   30.3605 C   0  0  0  0  0  0  0  0  0  0  0  0
  -11.2851  -26.0806   29.2200 C   0  0  0  0  0  0  0  0  0  0  0  0
  -12.6338  -26.6123   28.9999 N   0  0  0  0  0  0  0  0  0  0  0  0
  -13.2903  -26.5160   27.8269 C   0  0  0  0  0  0  0  0  0  0  0  0
  -14.4917  -27.1782   27.7214 N   0  0  0  0  0  0  0  0  0  0  0  0
  -14.9111  -26.9706   26.4893 C   0  0  0  0  0  0  0  0  0  0  0  0
  -14.0725  -26.1200   25.8287 N   0  0  0  0  0  0  0  0  0  0  0  0
  -13.0415  -25.8146   26.6729 C   0  0  0  0  0  0  0  0  0  0  0  0
  -11.5791  -24.4931   26.1760 I   0  0  0  0  0  0  0  0  0  0  0  0
  -10.9595  -24.9966   32.1173 C   0  0  0  0  0  0  0  0  0  0  0  0
  -10.2175  -19.4332   36.0800 H   0  0  0  0  0  0  0  0  0  0  0  0
   -8.7857  -19.8279   34.9635 H   0  0  0  0  0  0  0  0  0  0  0  0
   -8.9931  -20.5753   36.4908 H   0  0  0  0  0  0  0  0  0  0  0  0
  -10.1821  -19.7881   33.6521 H   0  0  0  0  0  0  0  0  0  0  0  0
  -11.6106  -19.7544   34.7052 H   0  0  0  0  0  0  0  0  0  0  0  0
   -9.8780  -21.1525   31.9612 H   0  0  0  0  0  0  0  0  0  0  0  0
  -10.9548  -22.0193   29.8388 H   0  0  0  0  0  0  0  0  0  0  0  0
  -13.2471  -22.5431   29.8938 H   0  0  0  0  0  0  0  0  0  0  0  0
  -14.7000  -21.9114   31.8259 H   0  0  0  0  0  0  0  0  0  0  0  0
  -13.6961  -21.0334   33.8403 H   0  0  0  0  0  0  0  0  0  0  0  0
  -11.8034  -23.3629   34.1521 H   0  0  0  0  0  0  0  0  0  0  0  0
  -10.8257  -24.1493   35.3672 H   0  0  0  0  0  0  0  0  0  0  0  0
   -8.8799  -26.0465   34.3707 H   0  0  0  0  0  0  0  0  0  0  0  0
   -9.5509  -27.0015   29.9947 H   0  0  0  0  0  0  0  0  0  0  0  0
  -11.0299  -27.7184   30.6115 H   0  0  0  0  0  0  0  0  0  0  0  0
  -11.3221  -24.9957   29.3538 H   0  0  0  0  0  0  0  0  0  0  0  0
  -10.6860  -26.2974   28.3294 H   0  0  0  0  0  0  0  0  0  0  0  0
  -12.8615  -27.4500   29.5249 H   0  0  0  0  0  0  0  0  0  0  0  0
  -15.8226  -27.3584   26.0533 H   0  0  0  0  0  0  0  0  0  0  0  0
  -14.2023  -25.7404   24.9037 H   0  0  0  0  0  0  0  0  0  0  0  0
  -11.7199  -24.4710   31.5733 H   0  0  0  0  0  0  0  0  0  0  0  0
  1  2  1  0
  2  3  1  0
  3  4  1  0
  4  5  2  0
  5  6  1  0
  6  7  2  0
  7  8  1  0
  8  9  2  0
  2 10  1  0
 10 11  2  0
 10 12  1  0
 12 13  1  0
 13 14  1  0
 14 15  2  0
 15 16  1  0
 16 17  1  0
 17 18  1  0
 18 19  1  0
 19 20  1  0
 20 21  1  0
 21 22  2  0
 22 23  1  0
 23 24  1  0
 24 25  1  0
 16 26  1  0
  9  4  1  0
 26 13  2  0
 24 20  2  0
  1 27  1  0
  1 28  1  0
  1 29  1  0
  3 30  1  0
  3 31  1  0
  5 32  1  0
  6 33  1  0
  7 34  1  0
  8 35  1  0
  9 36  1  0
 12 37  1  0
 12 38  1  0
 14 39  1  0
 17 40  1  0
 17 41  1  0
 18 42  1  0
 18 43  1  0
 19 44  1  0
 22 45  1  0
 23 46  1  0
 26 47  1  0
M  END
>  <Energy>  (409) 
94.444177393869637

>  <compound_id>  (409) 
3403

>  <target_id>  (409) 
1

>  <reference_id>  (409) 
115

>  <inspiration_ids>  (409) 
[115, 39]

>  <energy_score>  (409) 
54.573202720118616

>  <distance_score>  (409) 
3.5361533140152983

>  <path>  (409) 
/opt/xchem-fragalysis-2/maxwin/BulkDock/SCRATCH/505734/C3403-P115/C3403-P115.minimised.mol

>  <scratch_subdir>  (409) 
/opt/xchem-fragalysis-2/maxwin/BulkDock/SCRATCH/505734/C3403-P115

>  <fragmenstein_runtime>  (409) 
11.780824899673462

>  <fragmenstein_outcome>  (409) 
too moved

>  <fragmenstein_mode>  (409) 
expansion

>  <fragmenstein_error>  (409) 


$$$$
C3403-P39
     RDKit          3D

 47 49  0  0  0  0  0  0  0  0999 V2000
  -10.6608  -25.2923   33.7620 C   0  0  0  0  0  0  0  0  0  0  0  0
  -10.9318  -24.0045   33.0617 N   0  0  0  0  0  0  0  0  0  0  0  0
  -11.7010  -24.8999   32.1685 C   0  0  0  0  0  0  0  0  0  0  0  0
  -11.0033  -25.7232   31.1170 C   0  0  0  0  0  0  0  0  0  0  0  0
   -9.8311  -25.2565   30.5770 C   0  0  0  0  0  0  0  0  0  0  0  0
   -9.5176  -25.5649   29.2714 C   0  0  0  0  0  0  0  0  0  0  0  0
  -10.2991  -26.4233   28.5399 C   0  0  0  0  0  0  0  0  0  0  0  0
  -11.3260  -27.0855   29.1785 C   0  0  0  0  0  0  0  0  0  0  0  0
  -11.6423  -26.7747   30.4884 C   0  0  0  0  0  0  0  0  0  0  0  0
  -11.7404  -22.8769   33.4484 C   0  0  0  0  0  0  0  0  0  0  0  0
  -12.4720  -22.7257   34.3922 O   0  0  0  0  0  0  0  0  0  0  0  0
  -11.5069  -21.6799   32.5181 C   0  0  0  0  0  0  0  0  0  0  0  0
  -12.2963  -21.8937   31.3340 C   0  0  0  0  0  0  0  0  0  0  0  0
  -13.6267  -22.3274   31.3409 C   0  0  0  0  0  0  0  0  0  0  0  0
  -13.8652  -22.9231   30.1914 N   0  0  0  0  0  0  0  0  0  0  0  0
  -12.7278  -22.8244   29.4973 N   0  0  0  0  0  0  0  0  0  0  0  0
  -12.5356  -23.6862   28.3576 C   0  0  0  0  0  0  0  0  0  0  0  0
  -13.4419  -24.8817   28.5227 C   0  0  0  0  0  0  0  0  0  0  0  0
  -13.4562  -25.9989   27.5699 N   0  0  0  0  0  0  0  0  0  0  0  0
  -14.0317  -25.7242   26.4043 C   0  0  0  0  0  0  0  0  0  0  0  0
  -15.3037  -26.0638   26.1089 N   0  0  0  0  0  0  0  0  0  0  0  0
  -15.5308  -25.4511   24.9661 C   0  0  0  0  0  0  0  0  0  0  0  0
  -14.4370  -24.7345   24.5493 N   0  0  0  0  0  0  0  0  0  0  0  0
  -13.4358  -24.9877   25.4369 C   0  0  0  0  0  0  0  0  0  0  0  0
  -11.4311  -24.5063   25.5019 I   0  0  0  0  0  0  0  0  0  0  0  0
  -11.8467  -21.9639   30.0353 C   0  0  0  0  0  0  0  0  0  0  0  0
  -11.4025  -25.4550   34.5495 H   0  0  0  0  0  0  0  0  0  0  0  0
  -10.4227  -26.2117   33.2262 H   0  0  0  0  0  0  0  0  0  0  0  0
   -9.7064  -25.1356   34.2712 H   0  0  0  0  0  0  0  0  0  0  0  0
  -12.1681  -24.2267   31.4764 H   0  0  0  0  0  0  0  0  0  0  0  0
  -12.6382  -25.2266   32.6181 H   0  0  0  0  0  0  0  0  0  0  0  0
   -9.2179  -24.5962   31.1697 H   0  0  0  0  0  0  0  0  0  0  0  0
   -8.6509  -25.1376   28.8208 H   0  0  0  0  0  0  0  0  0  0  0  0
  -10.0639  -26.6302   27.5035 H   0  0  0  0  0  0  0  0  0  0  0  0
  -11.9059  -27.8221   28.6316 H   0  0  0  0  0  0  0  0  0  0  0  0
  -12.4769  -27.2600   30.9534 H   0  0  0  0  0  0  0  0  0  0  0  0
  -10.4627  -21.6191   32.2107 H   0  0  0  0  0  0  0  0  0  0  0  0
  -11.7826  -20.7572   33.0361 H   0  0  0  0  0  0  0  0  0  0  0  0
  -14.3561  -22.3897   32.1414 H   0  0  0  0  0  0  0  0  0  0  0  0
  -12.7754  -23.0684   27.4998 H   0  0  0  0  0  0  0  0  0  0  0  0
  -11.4800  -23.9471   28.3526 H   0  0  0  0  0  0  0  0  0  0  0  0
  -13.1826  -25.2768   29.4910 H   0  0  0  0  0  0  0  0  0  0  0  0
  -14.4733  -24.5433   28.5992 H   0  0  0  0  0  0  0  0  0  0  0  0
  -13.8324  -26.8390   27.9908 H   0  0  0  0  0  0  0  0  0  0  0  0
  -16.4567  -25.4782   24.4075 H   0  0  0  0  0  0  0  0  0  0  0  0
  -14.3705  -24.1851   23.7039 H   0  0  0  0  0  0  0  0  0  0  0  0
  -10.9212  -21.7071   29.5494 H   0  0  0  0  0  0  0  0  0  0  0  0
  1  2  1  0
  2  3  1  0
  3  4  1  0
  4  5  2  0
  5  6  1  0
  6  7  2  0
  7  8  1  0
  8  9  2  0
  2 10  1  0
 10 11  2  0
 10 12  1  0
 12 13  1  0
 13 14  1  0
 14 15  2  0
 15 16  1  0
 16 17  1  0
 17 18  1  0
 18 19  1  0
 19 20  1  0
 20 21  1  0
 21 22  2  0
 22 23  1  0
 23 24  1  0
 24 25  1  0
 16 26  1  0
  9  4  1  0
 26 13  2  0
 24 20  2  0
  1 27  1  0
  1 28  1  0
  1 29  1  0
  3 30  1  0
  3 31  1  0
  5 32  1  0
  6 33  1  0
  7 34  1  0
  8 35  1  0
  9 36  1  0
 12 37  1  0
 12 38  1  0
 14 39  1  0
 17 40  1  0
 17 41  1  0
 18 42  1  0
 18 43  1  0
 19 44  1  0
 22 45  1  0
 23 46  1  0
 26 47  1  0
M  END
>  <Energy>  (410) 
144.25431049306209

>  <compound_id>  (410) 
3403

>  <target_id>  (410) 
1

>  <reference_id>  (410) 
39

>  <inspiration_ids>  (410) 
[115, 39]

>  <energy_score>  (410) 
104.38333581931204

>  <distance_score>  (410) 
3.09165093058757

>  <path>  (410) 
/opt/xchem-fragalysis-2/maxwin/BulkDock/SCRATCH/505734/C3403-P39/C3403-P39.minimised.mol

>  <scratch_subdir>  (410) 
/opt/xchem-fragalysis-2/maxwin/BulkDock/SCRATCH/505734/C3403-P39

>  <fragmenstein_runtime>  (410) 
15.346643686294556

>  <fragmenstein_outcome>  (410) 
too moved

>  <fragmenstein_mode>  (410) 
expansion

>  <fragmenstein_error>  (410) 


$$$$
C3404-P115
     RDKit          3D

 61 64  0  0  0  0  0  0  0  0999 V2000
   -9.9868  -26.6200   32.3115 O   0  0  0  0  0  0  0  0  0  0  0  0
   -9.4655  -26.5388   33.3910 C   0  0  0  0  0  0  0  0  0  0  0  0
   -9.9068  -25.4524   34.4041 C   0  0  0  0  0  0  0  0  0  0  0  0
  -10.4893  -24.2003   33.9481 N   0  0  0  0  0  0  0  0  0  0  0  0
   -9.5875  -23.2714   33.3746 C   0  0  0  0  0  0  0  0  0  0  0  0
  -10.4557  -22.2174   32.8574 N   0  0  0  0  0  0  0  0  0  0  0  0
  -11.6598  -22.9117   32.4119 N   0  0  0  0  0  0  0  0  0  0  0  0
  -11.7540  -22.8571   30.9410 C   0  0  0  0  0  0  0  0  0  0  0  0
  -11.1942  -23.9819   30.0346 C   0  0  0  0  0  0  0  0  0  0  0  0
  -12.1947  -24.9381   29.5607 N   0  0  0  0  0  0  0  0  0  0  0  0
  -11.9346  -25.5188   28.3678 C   0  0  0  0  0  0  0  0  0  0  0  0
  -11.0520  -24.9695   27.4787 N   0  0  0  0  0  0  0  0  0  0  0  0
  -11.3310  -25.5356   26.3317 C   0  0  0  0  0  0  0  0  0  0  0  0
  -12.2662  -26.5043   26.4836 N   0  0  0  0  0  0  0  0  0  0  0  0
  -12.7049  -26.4808   27.7735 C   0  0  0  0  0  0  0  0  0  0  0  0
  -14.2631  -27.6073   28.5299 I   0  0  0  0  0  0  0  0  0  0  0  0
  -11.6218  -24.2369   33.0584 C   0  0  0  0  0  0  0  0  0  0  0  0
   -8.4686  -27.3941   34.0274 N   0  0  0  0  0  0  0  0  0  0  0  0
   -7.6930  -28.5887   33.4804 C   0  0  0  0  0  0  0  0  0  0  0  0
   -7.8758  -30.1183   33.5779 C   0  0  0  0  0  0  0  0  0  0  0  0
   -7.8187  -30.5623   35.0103 C   0  0  0  0  0  0  0  0  0  0  0  0
   -8.4422  -29.4461   35.8209 C   0  0  0  0  0  0  0  0  0  0  0  0
   -7.4375  -29.0092   36.8734 C   0  0  0  0  0  0  0  0  0  0  0  0
   -7.5090  -29.6055   38.1459 C   0  0  0  0  0  0  0  0  0  0  0  0
   -6.5187  -29.3859   39.1054 C   0  0  0  0  0  0  0  0  0  0  0  0
   -5.4244  -28.5646   38.8203 C   0  0  0  0  0  0  0  0  0  0  0  0
   -4.3329  -28.3797   39.8326 C   0  0  0  0  0  0  0  0  0  0  0  0
   -3.5724  -29.5812   39.8928 O   0  0  0  0  0  0  0  0  0  0  0  0
   -5.3529  -27.9533   37.5657 C   0  0  0  0  0  0  0  0  0  0  0  0
   -6.3463  -28.1740   36.6058 C   0  0  0  0  0  0  0  0  0  0  0  0
   -9.1469  -28.4646   34.8256 C   0  0  0  0  0  0  0  0  0  0  0  0
  -10.6015  -25.9087   35.1126 H   0  0  0  0  0  0  0  0  0  0  0  0
   -9.0104  -25.1632   34.9364 H   0  0  0  0  0  0  0  0  0  0  0  0
   -9.0182  -23.7697   32.5876 H   0  0  0  0  0  0  0  0  0  0  0  0
   -8.9029  -22.8401   34.1078 H   0  0  0  0  0  0  0  0  0  0  0  0
  -10.7097  -21.6556   33.6736 H   0  0  0  0  0  0  0  0  0  0  0  0
  -11.2769  -21.9193   30.6170 H   0  0  0  0  0  0  0  0  0  0  0  0
  -12.7976  -22.6638   30.6821 H   0  0  0  0  0  0  0  0  0  0  0  0
  -10.7994  -23.4536   29.1591 H   0  0  0  0  0  0  0  0  0  0  0  0
  -10.3729  -24.5278   30.5094 H   0  0  0  0  0  0  0  0  0  0  0  0
  -13.0600  -24.4021   29.4353 H   0  0  0  0  0  0  0  0  0  0  0  0
  -10.8965  -25.2908   25.3747 H   0  0  0  0  0  0  0  0  0  0  0  0
  -12.5745  -27.1655   25.7815 H   0  0  0  0  0  0  0  0  0  0  0  0
  -12.4677  -24.3328   33.7280 H   0  0  0  0  0  0  0  0  0  0  0  0
  -11.6248  -25.0582   32.3464 H   0  0  0  0  0  0  0  0  0  0  0  0
   -7.7669  -28.4094   32.4005 H   0  0  0  0  0  0  0  0  0  0  0  0
   -6.6481  -28.3730   33.7291 H   0  0  0  0  0  0  0  0  0  0  0  0
   -8.8241  -30.4351   33.1387 H   0  0  0  0  0  0  0  0  0  0  0  0
   -7.0785  -30.6100   33.0158 H   0  0  0  0  0  0  0  0  0  0  0  0
   -8.3841  -31.4924   35.1396 H   0  0  0  0  0  0  0  0  0  0  0  0
   -6.7822  -30.7759   35.2982 H   0  0  0  0  0  0  0  0  0  0  0  0
   -9.2808  -29.8952   36.3756 H   0  0  0  0  0  0  0  0  0  0  0  0
   -8.3274  -30.2786   38.3946 H   0  0  0  0  0  0  0  0  0  0  0  0
   -6.5923  -29.8787   40.0724 H   0  0  0  0  0  0  0  0  0  0  0  0
   -3.6685  -27.5535   39.5588 H   0  0  0  0  0  0  0  0  0  0  0  0
   -4.7561  -28.1692   40.8205 H   0  0  0  0  0  0  0  0  0  0  0  0
   -2.8594  -29.4172   40.5333 H   0  0  0  0  0  0  0  0  0  0  0  0
   -4.5142  -27.3071   37.3139 H   0  0  0  0  0  0  0  0  0  0  0  0
   -6.2302  -27.6792   35.6474 H   0  0  0  0  0  0  0  0  0  0  0  0
   -9.8047  -27.8913   35.4914 H   0  0  0  0  0  0  0  0  0  0  0  0
   -9.8896  -28.9791   34.1942 H   0  0  0  0  0  0  0  0  0  0  0  0
  1  2  2  0
  2  3  1  0
  3  4  1  0
  4  5  1  0
  5  6  1  0
  6  7  1  0
  7  8  1  0
  8  9  1  0
  9 10  1  0
 10 11  1  0
 11 12  1  0
 12 13  2  0
 13 14  1  0
 14 15  1  0
 15 16  1  0
  7 17  1  0
  2 18  1  0
 18 19  1  0
 19 20  1  0
 20 21  1  0
 21 22  1  0
 22 23  1  0
 23 24  2  0
 24 25  1  0
 25 26  2  0
 26 27  1  0
 27 28  1  0
 26 29  1  0
 29 30  2  0
 22 31  1  0
 17  4  1  0
 31 18  1  0
 15 11  2  0
 30 23  1  0
  3 32  1  0
  3 33  1  0
  5 34  1  0
  5 35  1  0
  6 36  1  0
  8 37  1  0
  8 38  1  0
  9 39  1  0
  9 40  1  0
 10 41  1  0
 13 42  1  0
 14 43  1  0
 17 44  1  0
 17 45  1  0
 19 46  1  0
 19 47  1  0
 20 48  1  0
 20 49  1  0
 21 50  1  0
 21 51  1  0
 22 52  1  0
 24 53  1  0
 25 54  1  0
 27 55  1  0
 27 56  1  0
 28 57  1  0
 29 58  1  0
 30 59  1  0
 31 60  1  0
 31 61  1  0
M  END
>  <Energy>  (411) 
163.49331356176205

>  <compound_id>  (411) 
3404

>  <target_id>  (411) 
1

>  <reference_id>  (411) 
115

>  <inspiration_ids>  (411) 
[115, 49]

>  <energy_score>  (411) 
44.481282036859

>  <distance_score>  (411) 
3.804243886779912

>  <path>  (411) 
/opt/xchem-fragalysis-2/maxwin/BulkDock/SCRATCH/505734/C3404-P115/C3404-P115.minimised.mol

>  <scratch_subdir>  (411) 
/opt/xchem-fragalysis-2/maxwin/BulkDock/SCRATCH/505734/C3404-P115

>  <fragmenstein_runtime>  (411) 
37.773269176483154

>  <fragmenstein_outcome>  (411) 
too moved

>  <fragmenstein_mode>  (411) 
expansion

>  <fragmenstein_error>  (411) 


$$$$
C3404-P49
     RDKit          3D

 61 64  0  0  0  0  0  0  0  0999 V2000
  -13.1580  -24.3693   29.8180 O   0  0  0  0  0  0  0  0  0  0  0  0
  -12.1854  -24.0324   30.4425 C   0  0  0  0  0  0  0  0  0  0  0  0
  -12.0511  -22.6737   31.1127 C   0  0  0  0  0  0  0  0  0  0  0  0
  -10.9203  -21.9696   30.4831 N   0  0  0  0  0  0  0  0  0  0  0  0
   -9.9750  -22.7484   29.6743 C   0  0  0  0  0  0  0  0  0  0  0  0
   -9.5477  -21.9614   28.5524 N   0  0  0  0  0  0  0  0  0  0  0  0
  -10.5872  -21.0427   28.3819 N   0  0  0  0  0  0  0  0  0  0  0  0
  -11.5426  -21.5444   27.4316 C   0  0  0  0  0  0  0  0  0  0  0  0
  -11.5600  -22.9177   26.8159 C   0  0  0  0  0  0  0  0  0  0  0  0
  -12.7698  -23.2414   26.0766 N   0  0  0  0  0  0  0  0  0  0  0  0
  -13.2540  -24.4930   26.1235 C   0  0  0  0  0  0  0  0  0  0  0  0
  -14.5612  -24.7578   25.8338 N   0  0  0  0  0  0  0  0  0  0  0  0
  -14.6566  -26.0701   25.8926 C   0  0  0  0  0  0  0  0  0  0  0  0
  -13.4514  -26.6535   26.1655 N   0  0  0  0  0  0  0  0  0  0  0  0
  -12.5384  -25.6521   26.3083 C   0  0  0  0  0  0  0  0  0  0  0  0
  -10.4840  -25.8882   26.4933 I   0  0  0  0  0  0  0  0  0  0  0  0
  -11.1962  -20.8102   29.6944 C   0  0  0  0  0  0  0  0  0  0  0  0
  -10.9320  -24.6935   30.6409 N   0  0  0  0  0  0  0  0  0  0  0  0
  -10.4172  -25.8866   30.0780 C   0  0  0  0  0  0  0  0  0  0  0  0
   -8.9259  -25.6843   30.2641 C   0  0  0  0  0  0  0  0  0  0  0  0
   -8.5836  -25.7758   31.7693 C   0  0  0  0  0  0  0  0  0  0  0  0
   -9.7693  -26.4814   32.3829 C   0  0  0  0  0  0  0  0  0  0  0  0
   -9.6885  -27.8499   33.1923 C   0  0  0  0  0  0  0  0  0  0  0  0
   -8.5572  -28.1183   34.0946 C   0  0  0  0  0  0  0  0  0  0  0  0
   -7.6398  -29.3094   33.8885 C   0  0  0  0  0  0  0  0  0  0  0  0
   -8.1632  -30.4844   32.6394 C   0  0  0  0  0  0  0  0  0  0  0  0
   -6.4581  -31.2559   32.1425 C   0  0  0  0  0  0  0  0  0  0  0  0
   -5.4886  -31.2037   31.0911 O   0  0  0  0  0  0  0  0  0  0  0  0
   -9.7009  -30.2230   32.2738 C   0  0  0  0  0  0  0  0  0  0  0  0
  -10.4191  -28.9681   32.6235 C   0  0  0  0  0  0  0  0  0  0  0  0
  -10.9786  -25.5895   31.9188 C   0  0  0  0  0  0  0  0  0  0  0  0
  -12.9892  -22.1225   31.0130 H   0  0  0  0  0  0  0  0  0  0  0  0
  -11.8629  -22.7978   32.1832 H   0  0  0  0  0  0  0  0  0  0  0  0
  -10.3521  -23.5746   29.1042 H   0  0  0  0  0  0  0  0  0  0  0  0
   -9.1331  -23.0297   30.3047 H   0  0  0  0  0  0  0  0  0  0  0  0
   -9.2523  -22.5275   27.7618 H   0  0  0  0  0  0  0  0  0  0  0  0
  -11.4747  -20.8323   26.6203 H   0  0  0  0  0  0  0  0  0  0  0  0
  -12.4677  -21.5045   27.9618 H   0  0  0  0  0  0  0  0  0  0  0  0
  -10.6957  -23.0390   26.1619 H   0  0  0  0  0  0  0  0  0  0  0  0
  -11.5240  -23.6013   27.6537 H   0  0  0  0  0  0  0  0  0  0  0  0
  -13.3966  -22.4505   25.9086 H   0  0  0  0  0  0  0  0  0  0  0  0
  -15.5547  -26.6474   25.7204 H   0  0  0  0  0  0  0  0  0  0  0  0
  -13.2227  -27.6391   26.1424 H   0  0  0  0  0  0  0  0  0  0  0  0
  -10.7190  -19.9380   30.1548 H   0  0  0  0  0  0  0  0  0  0  0  0
  -12.2381  -20.5350   29.6767 H   0  0  0  0  0  0  0  0  0  0  0  0
  -10.9725  -26.8398   30.1207 H   0  0  0  0  0  0  0  0  0  0  0  0
  -10.5854  -25.6995   29.0349 H   0  0  0  0  0  0  0  0  0  0  0  0
   -8.5887  -24.7269   29.8768 H   0  0  0  0  0  0  0  0  0  0  0  0
   -8.3644  -26.3116   29.6091 H   0  0  0  0  0  0  0  0  0  0  0  0
   -8.4942  -24.7547   32.1620 H   0  0  0  0  0  0  0  0  0  0  0  0
   -7.6487  -26.2899   31.9725 H   0  0  0  0  0  0  0  0  0  0  0  0
   -9.9191  -27.1562   31.5840 H   0  0  0  0  0  0  0  0  0  0  0  0
   -8.4576  -27.5008   34.9436 H   0  0  0  0  0  0  0  0  0  0  0  0
   -6.5820  -29.1742   33.9473 H   0  0  0  0  0  0  0  0  0  0  0  0
   -5.8178  -30.6970   32.7770 H   0  0  0  0  0  0  0  0  0  0  0  0
   -6.5283  -32.3318   32.3836 H   0  0  0  0  0  0  0  0  0  0  0  0
   -5.8174  -30.6470   30.3713 H   0  0  0  0  0  0  0  0  0  0  0  0
  -10.4769  -30.8198   31.8426 H   0  0  0  0  0  0  0  0  0  0  0  0
  -11.4011  -28.8171   32.1777 H   0  0  0  0  0  0  0  0  0  0  0  0
  -11.8012  -26.2638   31.8979 H   0  0  0  0  0  0  0  0  0  0  0  0
  -11.0410  -24.7979   32.6636 H   0  0  0  0  0  0  0  0  0  0  0  0
  1  2  2  0
  2  3  1  0
  3  4  1  0
  4  5  1  0
  5  6  1  0
  6  7  1  0
  7  8  1  0
  8  9  1  0
  9 10  1  0
 10 11  1  0
 11 12  1  0
 12 13  2  0
 13 14  1  0
 14 15  1  0
 15 16  1  0
  7 17  1  0
  2 18  1  0
 18 19  1  0
 19 20  1  0
 20 21  1  0
 21 22  1  0
 22 23  1  0
 23 24  2  0
 24 25  1  0
 25 26  2  0
 26 27  1  0
 27 28  1  0
 26 29  1  0
 29 30  2  0
 22 31  1  0
 17  4  1  0
 31 18  1  0
 15 11  2  0
 30 23  1  0
  3 32  1  0
  3 33  1  0
  5 34  1  0
  5 35  1  0
  6 36  1  0
  8 37  1  0
  8 38  1  0
  9 39  1  0
  9 40  1  0
 10 41  1  0
 13 42  1  0
 14 43  1  0
 17 44  1  0
 17 45  1  0
 19 46  1  0
 19 47  1  0
 20 48  1  0
 20 49  1  0
 21 50  1  0
 21 51  1  0
 22 52  1  0
 24 53  1  0
 25 54  1  0
 27 55  1  0
 27 56  1  0
 28 57  1  0
 29 58  1  0
 30 59  1  0
 31 60  1  0
 31 61  1  0
M  END
>  <Energy>  (412) 
484.79319021725547

>  <compound_id>  (412) 
3404

>  <target_id>  (412) 
1

>  <reference_id>  (412) 
49

>  <inspiration_ids>  (412) 
[115, 49]

>  <energy_score>  (412) 
365.7811586923542

>  <distance_score>  (412) 
3.117365267220523

>  <path>  (412) 
/opt/xchem-fragalysis-2/maxwin/BulkDock/SCRATCH/505734/C3404-P49/C3404-P49.minimised.mol

>  <scratch_subdir>  (412) 
/opt/xchem-fragalysis-2/maxwin/BulkDock/SCRATCH/505734/C3404-P49

>  <fragmenstein_runtime>  (412) 
21.279173612594604

>  <fragmenstein_outcome>  (412) 
too moved

>  <fragmenstein_mode>  (412) 
expansion

>  <fragmenstein_error>  (412) 


$$$$
C3405-P115
     RDKit          3D

 58 61  0  0  0  0  0  0  0  0999 V2000
   -9.4557  -22.4042   36.4397 O   0  0  0  0  0  0  0  0  0  0  0  0
   -9.9066  -22.7668   35.4511 C   0  0  0  0  0  0  0  0  0  0  0  0
  -10.5594  -24.1137   35.2377 C   0  0  0  0  0  0  0  0  0  0  0  0
   -9.8738  -24.9788   34.3369 N   0  0  0  0  0  0  0  0  0  0  0  0
   -9.3649  -24.6684   33.1208 C   0  0  0  0  0  0  0  0  0  0  0  0
   -8.8763  -25.7113   32.5163 N   0  0  0  0  0  0  0  0  0  0  0  0
   -9.2513  -26.7435   33.3185 C   0  0  0  0  0  0  0  0  0  0  0  0
   -9.3109  -28.0702   32.7714 C   0  0  0  0  0  0  0  0  0  0  0  0
   -9.9439  -28.0051   31.3980 C   0  0  0  0  0  0  0  0  0  0  0  0
  -10.8743  -26.9438   30.9492 N   0  0  0  0  0  0  0  0  0  0  0  0
  -11.1363  -26.9922   29.6230 C   0  0  0  0  0  0  0  0  0  0  0  0
  -10.2018  -26.4056   28.8223 N   0  0  0  0  0  0  0  0  0  0  0  0
  -10.6023  -26.6688   27.6111 C   0  0  0  0  0  0  0  0  0  0  0  0
  -11.8284  -27.2403   27.5936 N   0  0  0  0  0  0  0  0  0  0  0  0
  -12.1584  -27.5565   28.8761 C   0  0  0  0  0  0  0  0  0  0  0  0
  -13.7902  -28.7940   29.1941 I   0  0  0  0  0  0  0  0  0  0  0  0
   -9.8301  -26.3215   34.4751 C   0  0  0  0  0  0  0  0  0  0  0  0
  -10.1141  -22.1068   34.1538 N   0  0  0  0  0  0  0  0  0  0  0  0
   -9.8106  -20.2160   33.8586 C   0  0  0  0  0  0  0  0  0  0  0  0
  -11.4913  -19.8136   34.2896 C   0  0  0  0  0  0  0  0  0  0  0  0
  -12.2587  -20.8766   33.4382 C   0  0  0  0  0  0  0  0  0  0  0  0
  -11.1774  -21.1376   32.4291 C   0  0  0  0  0  0  0  0  0  0  0  0
  -11.3749  -22.0452   31.2441 C   0  0  0  0  0  0  0  0  0  0  0  0
  -11.7255  -23.3595   31.2057 C   0  0  0  0  0  0  0  0  0  0  0  0
  -11.8444  -24.0061   29.9440 C   0  0  0  0  0  0  0  0  0  0  0  0
  -11.6060  -23.4104   28.6955 C   0  0  0  0  0  0  0  0  0  0  0  0
  -11.6479  -24.0792   27.3515 C   0  0  0  0  0  0  0  0  0  0  0  0
  -12.0755  -23.3586   26.2036 O   0  0  0  0  0  0  0  0  0  0  0  0
  -11.2726  -22.1141   28.7397 C   0  0  0  0  0  0  0  0  0  0  0  0
  -11.1668  -21.4965   29.9715 C   0  0  0  0  0  0  0  0  0  0  0  0
   -9.7744  -20.9716   33.6343 C   0  0  0  0  0  0  0  0  0  0  0  0
  -10.7461  -24.6024   36.1931 H   0  0  0  0  0  0  0  0  0  0  0  0
  -11.5611  -23.9620   34.8144 H   0  0  0  0  0  0  0  0  0  0  0  0
   -9.3426  -23.6831   32.7062 H   0  0  0  0  0  0  0  0  0  0  0  0
   -8.3124  -28.5182   32.7141 H   0  0  0  0  0  0  0  0  0  0  0  0
   -9.8892  -28.7374   33.4206 H   0  0  0  0  0  0  0  0  0  0  0  0
   -9.0987  -27.9670   30.7212 H   0  0  0  0  0  0  0  0  0  0  0  0
  -10.5432  -28.9100   31.3684 H   0  0  0  0  0  0  0  0  0  0  0  0
  -10.3373  -26.0896   31.1596 H   0  0  0  0  0  0  0  0  0  0  0  0
  -10.0849  -26.4734   26.6968 H   0  0  0  0  0  0  0  0  0  0  0  0
  -12.3185  -27.5251   26.7534 H   0  0  0  0  0  0  0  0  0  0  0  0
  -10.3000  -26.8515   35.2883 H   0  0  0  0  0  0  0  0  0  0  0  0
   -9.2748  -19.7350   34.8422 H   0  0  0  0  0  0  0  0  0  0  0  0
   -9.5494  -19.4150   32.9702 H   0  0  0  0  0  0  0  0  0  0  0  0
  -11.4863  -19.9234   35.3722 H   0  0  0  0  0  0  0  0  0  0  0  0
  -11.7219  -18.7827   34.0685 H   0  0  0  0  0  0  0  0  0  0  0  0
  -13.2714  -20.6419   33.1311 H   0  0  0  0  0  0  0  0  0  0  0  0
  -12.3921  -21.8358   33.9145 H   0  0  0  0  0  0  0  0  0  0  0  0
  -11.0131  -20.2196   31.9200 H   0  0  0  0  0  0  0  0  0  0  0  0
  -11.9113  -23.9197   32.1176 H   0  0  0  0  0  0  0  0  0  0  0  0
  -12.2038  -25.0162   29.9512 H   0  0  0  0  0  0  0  0  0  0  0  0
  -12.3353  -24.9163   27.3986 H   0  0  0  0  0  0  0  0  0  0  0  0
  -10.6260  -24.3679   27.1128 H   0  0  0  0  0  0  0  0  0  0  0  0
  -12.6396  -22.6136   26.4861 H   0  0  0  0  0  0  0  0  0  0  0  0
  -11.0184  -21.6299   27.8150 H   0  0  0  0  0  0  0  0  0  0  0  0
  -10.7107  -20.5503   29.9024 H   0  0  0  0  0  0  0  0  0  0  0  0
   -8.5557  -21.3963   33.6892 H   0  0  0  0  0  0  0  0  0  0  0  0
   -9.3090  -21.3032   32.5619 H   0  0  0  0  0  0  0  0  0  0  0  0
  1  2  2  0
  2  3  1  0
  3  4  1  0
  4  5  1  0
  5  6  2  0
  6  7  1  0
  7  8  1  0
  8  9  1  0
  9 10  1  0
 10 11  1  0
 11 12  1  0
 12 13  2  0
 13 14  1  0
 14 15  1  0
 15 16  1  0
  7 17  2  0
  2 18  1  0
 18 19  1  0
 19 20  1  0
 20 21  1  0
 21 22  1  0
 22 23  1  0
 23 24  2  0
 24 25  1  0
 25 26  2  0
 26 27  1  0
 27 28  1  0
 26 29  1  0
 29 30  2  0
 22 31  1  0
 17  4  1  0
 31 18  1  0
 15 11  2  0
 30 23  1  0
  3 32  1  0
  3 33  1  0
  5 34  1  0
  8 35  1  0
  8 36  1  0
  9 37  1  0
  9 38  1  0
 10 39  1  0
 13 40  1  0
 14 41  1  0
 17 42  1  0
 19 43  1  0
 19 44  1  0
 20 45  1  0
 20 46  1  0
 21 47  1  0
 21 48  1  0
 22 49  1  0
 24 50  1  0
 25 51  1  0
 27 52  1  0
 27 53  1  0
 28 54  1  0
 29 55  1  0
 30 56  1  0
 31 57  1  0
 31 58  1  0
M  END
>  <Energy>  (413) 
878.090602130967

>  <compound_id>  (413) 
3405

>  <target_id>  (413) 
1

>  <reference_id>  (413) 
115

>  <inspiration_ids>  (413) 
[115, 52]

>  <energy_score>  (413) 
825.8285801080805

>  <distance_score>  (413) 
2.7938827315060633

>  <path>  (413) 
/opt/xchem-fragalysis-2/maxwin/BulkDock/SCRATCH/505734/C3405-P115/C3405-P115.minimised.mol

>  <scratch_subdir>  (413) 
/opt/xchem-fragalysis-2/maxwin/BulkDock/SCRATCH/505734/C3405-P115

>  <fragmenstein_runtime>  (413) 
19.477779388427734

>  <fragmenstein_outcome>  (413) 
too moved

>  <fragmenstein_mode>  (413) 
expansion

>  <fragmenstein_error>  (413) 


$$$$
C3405-P52
     RDKit          3D

 58 61  0  0  0  0  0  0  0  0999 V2000
  -11.3308  -26.0044   29.7179 O   0  0  0  0  0  0  0  0  0  0  0  0
  -12.2823  -25.3635   29.5437 C   0  0  0  0  0  0  0  0  0  0  0  0
  -12.2616  -23.7997   29.4970 C   0  0  0  0  0  0  0  0  0  0  0  0
  -11.3704  -23.2843   30.5318 N   0  0  0  0  0  0  0  0  0  0  0  0
  -11.7572  -22.9498   31.8002 C   0  0  0  0  0  0  0  0  0  0  0  0
  -11.0130  -23.5984   32.6716 N   0  0  0  0  0  0  0  0  0  0  0  0
  -10.1411  -24.3046   31.8931 C   0  0  0  0  0  0  0  0  0  0  0  0
   -9.5363  -25.5945   32.2715 C   0  0  0  0  0  0  0  0  0  0  0  0
  -10.4311  -26.6276   32.9689 C   0  0  0  0  0  0  0  0  0  0  0  0
  -11.7015  -27.1468   32.2568 N   0  0  0  0  0  0  0  0  0  0  0  0
  -12.1322  -28.4202   32.5468 C   0  0  0  0  0  0  0  0  0  0  0  0
  -11.1866  -29.3970   32.5777 N   0  0  0  0  0  0  0  0  0  0  0  0
  -11.7920  -30.4961   32.9424 C   0  0  0  0  0  0  0  0  0  0  0  0
  -13.1167  -30.3097   33.0623 N   0  0  0  0  0  0  0  0  0  0  0  0
  -13.3777  -28.9934   32.8101 C   0  0  0  0  0  0  0  0  0  0  0  0
  -15.4056  -28.4795   32.9817 I   0  0  0  0  0  0  0  0  0  0  0  0
  -10.0809  -23.7487   30.6310 C   0  0  0  0  0  0  0  0  0  0  0  0
  -13.7683  -25.7449   29.3459 N   0  0  0  0  0  0  0  0  0  0  0  0
  -14.4706  -27.5694   29.5589 C   0  0  0  0  0  0  0  0  0  0  0  0
  -13.9703  -28.9890   28.7146 C   0  0  0  0  0  0  0  0  0  0  0  0
  -13.8774  -28.5330   27.2954 C   0  0  0  0  0  0  0  0  0  0  0  0
  -13.4129  -27.1588   27.6473 C   0  0  0  0  0  0  0  0  0  0  0  0
  -13.4555  -26.0365   26.6570 C   0  0  0  0  0  0  0  0  0  0  0  0
  -14.6666  -25.6024   26.1375 C   0  0  0  0  0  0  0  0  0  0  0  0
  -14.7232  -24.3904   25.4857 C   0  0  0  0  0  0  0  0  0  0  0  0
  -13.5670  -23.6334   25.2691 C   0  0  0  0  0  0  0  0  0  0  0  0
  -13.5737  -22.4955   24.2960 C   0  0  0  0  0  0  0  0  0  0  0  0
  -14.8857  -21.9381   24.1988 O   0  0  0  0  0  0  0  0  0  0  0  0
  -12.3555  -24.0495   25.8238 C   0  0  0  0  0  0  0  0  0  0  0  0
  -12.2914  -25.2732   26.4643 C   0  0  0  0  0  0  0  0  0  0  0  0
  -14.4137  -26.8647   29.1905 C   0  0  0  0  0  0  0  0  0  0  0  0
  -13.2473  -23.3579   29.6490 H   0  0  0  0  0  0  0  0  0  0  0  0
  -11.8596  -23.4563   28.5422 H   0  0  0  0  0  0  0  0  0  0  0  0
  -12.6403  -22.3682   32.0332 H   0  0  0  0  0  0  0  0  0  0  0  0
   -9.1176  -26.0117   31.3638 H   0  0  0  0  0  0  0  0  0  0  0  0
   -8.6976  -25.3745   32.9189 H   0  0  0  0  0  0  0  0  0  0  0  0
   -9.8173  -27.4707   33.2909 H   0  0  0  0  0  0  0  0  0  0  0  0
  -10.6934  -26.1263   33.8945 H   0  0  0  0  0  0  0  0  0  0  0  0
  -11.5114  -27.0011   31.2601 H   0  0  0  0  0  0  0  0  0  0  0  0
  -11.3242  -31.4481   33.1459 H   0  0  0  0  0  0  0  0  0  0  0  0
  -13.8006  -31.0052   33.3210 H   0  0  0  0  0  0  0  0  0  0  0  0
   -9.5149  -24.0521   29.7603 H   0  0  0  0  0  0  0  0  0  0  0  0
  -15.6078  -27.7986   30.0550 H   0  0  0  0  0  0  0  0  0  0  0  0
  -13.8657  -27.8639   30.5590 H   0  0  0  0  0  0  0  0  0  0  0  0
  -14.7064  -29.7829   28.8725 H   0  0  0  0  0  0  0  0  0  0  0  0
  -12.9994  -29.3073   29.1174 H   0  0  0  0  0  0  0  0  0  0  0  0
  -14.8495  -28.5462   26.7942 H   0  0  0  0  0  0  0  0  0  0  0  0
  -13.1638  -29.1230   26.7332 H   0  0  0  0  0  0  0  0  0  0  0  0
  -12.3653  -27.2853   27.9674 H   0  0  0  0  0  0  0  0  0  0  0  0
  -15.5892  -26.1556   26.2795 H   0  0  0  0  0  0  0  0  0  0  0  0
  -15.6929  -24.0322   25.1547 H   0  0  0  0  0  0  0  0  0  0  0  0
  -12.8189  -21.7369   24.5229 H   0  0  0  0  0  0  0  0  0  0  0  0
  -13.3216  -22.8687   23.3069 H   0  0  0  0  0  0  0  0  0  0  0  0
  -14.8475  -21.1773   24.8240 H   0  0  0  0  0  0  0  0  0  0  0  0
  -11.4471  -23.4683   25.6757 H   0  0  0  0  0  0  0  0  0  0  0  0
  -11.3346  -25.6104   26.8600 H   0  0  0  0  0  0  0  0  0  0  0  0
  -15.3358  -26.0356   29.4382 H   0  0  0  0  0  0  0  0  0  0  0  0
  -15.3133  -26.7532   28.2650 H   0  0  0  0  0  0  0  0  0  0  0  0
  1  2  2  0
  2  3  1  0
  3  4  1  0
  4  5  1  0
  5  6  2  0
  6  7  1  0
  7  8  1  0
  8  9  1  0
  9 10  1  0
 10 11  1  0
 11 12  1  0
 12 13  2  0
 13 14  1  0
 14 15  1  0
 15 16  1  0
  7 17  2  0
  2 18  1  0
 18 19  1  0
 19 20  1  0
 20 21  1  0
 21 22  1  0
 22 23  1  0
 23 24  2  0
 24 25  1  0
 25 26  2  0
 26 27  1  0
 27 28  1  0
 26 29  1  0
 29 30  2  0
 22 31  1  0
 17  4  1  0
 31 18  1  0
 15 11  2  0
 30 23  1  0
  3 32  1  0
  3 33  1  0
  5 34  1  0
  8 35  1  0
  8 36  1  0
  9 37  1  0
  9 38  1  0
 10 39  1  0
 13 40  1  0
 14 41  1  0
 17 42  1  0
 19 43  1  0
 19 44  1  0
 20 45  1  0
 20 46  1  0
 21 47  1  0
 21 48  1  0
 22 49  1  0
 24 50  1  0
 25 51  1  0
 27 52  1  0
 27 53  1  0
 28 54  1  0
 29 55  1  0
 30 56  1  0
 31 57  1  0
 31 58  1  0
M  END
>  <Energy>  (414) 
867.11974560623082

>  <compound_id>  (414) 
3405

>  <target_id>  (414) 
1

>  <reference_id>  (414) 
52

>  <inspiration_ids>  (414) 
[115, 52]

>  <energy_score>  (414) 
814.8577235833482

>  <distance_score>  (414) 
4.8278203788628735

>  <path>  (414) 
/opt/xchem-fragalysis-2/maxwin/BulkDock/SCRATCH/505734/C3405-P52/C3405-P52.minimised.mol

>  <scratch_subdir>  (414) 
/opt/xchem-fragalysis-2/maxwin/BulkDock/SCRATCH/505734/C3405-P52

>  <fragmenstein_runtime>  (414) 
28.98390483856201

>  <fragmenstein_outcome>  (414) 
too moved

>  <fragmenstein_mode>  (414) 
expansion

>  <fragmenstein_error>  (414) 


$$$$
C3406-P115
     RDKit          3D

 54 58  0  0  0  0  0  0  0  0999 V2000
  -10.0632  -30.8020   33.7879 I   0  0  0  0  0  0  0  0  0  0  0  0
   -8.7410  -29.2368   33.9359 C   0  0  0  0  0  0  0  0  0  0  0  0
   -7.8089  -29.2417   34.9389 N   0  0  0  0  0  0  0  0  0  0  0  0
   -7.1100  -28.0849   34.8701 C   0  0  0  0  0  0  0  0  0  0  0  0
   -7.5691  -27.3285   33.9087 N   0  0  0  0  0  0  0  0  0  0  0  0
   -8.5044  -28.0735   33.2353 C   0  0  0  0  0  0  0  0  0  0  0  0
   -9.0208  -27.5926   32.0716 N   0  0  0  0  0  0  0  0  0  0  0  0
   -8.9247  -26.1373   31.8785 C   0  0  0  0  0  0  0  0  0  0  0  0
   -9.0670  -25.3861   30.4968 C   0  0  0  0  0  0  0  0  0  0  0  0
   -9.5756  -25.5590   29.1517 N   0  0  0  0  0  0  0  0  0  0  0  0
  -10.2635  -24.6529   28.3404 C   0  0  0  0  0  0  0  0  0  0  0  0
  -10.5768  -25.3569   27.2047 C   0  0  0  0  0  0  0  0  0  0  0  0
  -11.5715  -25.1953   26.2226 C   0  0  0  0  0  0  0  0  0  0  0  0
  -12.8848  -24.6545   26.4995 C   0  0  0  0  0  0  0  0  0  0  0  0
  -13.6871  -25.6720   27.2717 N   0  0  0  0  0  0  0  0  0  0  0  0
  -13.0923  -26.7644   28.0290 C   0  0  0  0  0  0  0  0  0  0  0  0
  -12.5168  -26.2548   29.2888 C   0  0  0  0  0  0  0  0  0  0  0  0
  -12.5365  -25.0300   29.7896 N   0  0  0  0  0  0  0  0  0  0  0  0
  -11.8367  -25.0979   30.9766 C   0  0  0  0  0  0  0  0  0  0  0  0
  -11.5988  -23.9792   31.9093 C   0  0  0  0  0  0  0  0  0  0  0  0
  -11.3376  -24.2343   33.2678 C   0  0  0  0  0  0  0  0  0  0  0  0
  -10.8866  -23.2342   34.1239 C   0  0  0  0  0  0  0  0  0  0  0  0
  -10.7556  -21.9405   33.6476 C   0  0  0  0  0  0  0  0  0  0  0  0
  -11.1094  -21.6577   32.3312 C   0  0  0  0  0  0  0  0  0  0  0  0
  -11.5503  -22.6598   31.4625 C   0  0  0  0  0  0  0  0  0  0  0  0
  -11.4413  -26.3493   31.2047 N   0  0  0  0  0  0  0  0  0  0  0  0
  -11.7710  -27.0141   30.1010 N   0  0  0  0  0  0  0  0  0  0  0  0
  -11.6440  -26.1790   25.2346 C   0  0  0  0  0  0  0  0  0  0  0  0
  -10.7845  -27.2349   25.2113 C   0  0  0  0  0  0  0  0  0  0  0  0
   -9.8208  -27.3918   26.1554 C   0  0  0  0  0  0  0  0  0  0  0  0
   -9.8084  -26.5218   27.2675 C   0  0  0  0  0  0  0  0  0  0  0  0
   -9.1421  -26.5817   28.4199 N   0  0  0  0  0  0  0  0  0  0  0  0
   -7.6740  -29.9818   35.6108 H   0  0  0  0  0  0  0  0  0  0  0  0
   -6.3030  -27.8355   35.5456 H   0  0  0  0  0  0  0  0  0  0  0  0
   -9.9187  -27.9476   31.7789 H   0  0  0  0  0  0  0  0  0  0  0  0
   -7.9715  -25.7670   32.2659 H   0  0  0  0  0  0  0  0  0  0  0  0
   -9.5929  -25.7007   32.6108 H   0  0  0  0  0  0  0  0  0  0  0  0
   -8.0592  -25.2240   30.2239 H   0  0  0  0  0  0  0  0  0  0  0  0
   -9.4420  -24.4381   30.8235 H   0  0  0  0  0  0  0  0  0  0  0  0
  -10.6192  -23.7049   28.7101 H   0  0  0  0  0  0  0  0  0  0  0  0
  -13.4430  -24.3926   25.5920 H   0  0  0  0  0  0  0  0  0  0  0  0
  -12.6739  -23.7024   26.9910 H   0  0  0  0  0  0  0  0  0  0  0  0
  -13.8208  -25.0466   28.0838 H   0  0  0  0  0  0  0  0  0  0  0  0
  -13.9131  -27.4395   28.3027 H   0  0  0  0  0  0  0  0  0  0  0  0
  -12.3809  -27.3814   27.4978 H   0  0  0  0  0  0  0  0  0  0  0  0
  -11.4549  -25.2400   33.6659 H   0  0  0  0  0  0  0  0  0  0  0  0
  -10.6503  -23.4771   35.1565 H   0  0  0  0  0  0  0  0  0  0  0  0
  -10.3925  -21.1503   34.2995 H   0  0  0  0  0  0  0  0  0  0  0  0
  -10.9849  -20.6478   31.9762 H   0  0  0  0  0  0  0  0  0  0  0  0
  -11.7850  -22.4204   30.4283 H   0  0  0  0  0  0  0  0  0  0  0  0
  -11.4583  -27.9605   29.9856 H   0  0  0  0  0  0  0  0  0  0  0  0
  -12.5257  -26.2559   24.6017 H   0  0  0  0  0  0  0  0  0  0  0  0
  -10.8704  -28.0132   24.4818 H   0  0  0  0  0  0  0  0  0  0  0  0
   -9.0753  -28.1601   25.9802 H   0  0  0  0  0  0  0  0  0  0  0  0
  1  2  1  0
  2  3  1  0
  3  4  1  0
  4  5  2  0
  5  6  1  0
  6  7  1  0
  7  8  1  0
  8  9  1  0
  9 10  1  0
 10 11  1  0
 11 12  2  0
 12 13  1  0
 13 14  1  0
 14 15  1  0
 15 16  1  0
 16 17  1  0
 17 18  2  0
 18 19  1  0
 19 20  1  0
 20 21  2  0
 21 22  1  0
 22 23  2  0
 23 24  1  0
 24 25  2  0
 19 26  2  0
 26 27  1  0
 13 28  2  0
 28 29  1  0
 29 30  2  0
 30 31  1  0
 31 32  2  0
  6  2  2  0
 32 10  1  0
 31 12  1  0
 27 17  1  0
 25 20  1  0
  3 33  1  0
  4 34  1  0
  7 35  1  0
  8 36  1  0
  8 37  1  0
  9 38  1  0
  9 39  1  0
 11 40  1  0
 14 41  1  0
 14 42  1  0
 15 43  1  0
 16 44  1  0
 16 45  1  0
 21 46  1  0
 22 47  1  0
 23 48  1  0
 24 49  1  0
 25 50  1  0
 27 51  1  0
 28 52  1  0
 29 53  1  0
 30 54  1  0
M  END
>  <Energy>  (415) 
151.54871291290664

>  <compound_id>  (415) 
3406

>  <target_id>  (415) 
1

>  <reference_id>  (415) 
115

>  <inspiration_ids>  (415) 
[115, 64]

>  <energy_score>  (415) 
82.31335820655704

>  <distance_score>  (415) 
4.415911587847977

>  <path>  (415) 
/opt/xchem-fragalysis-2/maxwin/BulkDock/SCRATCH/505734/C3406-P115/C3406-P115.minimised.mol

>  <scratch_subdir>  (415) 
/opt/xchem-fragalysis-2/maxwin/BulkDock/SCRATCH/505734/C3406-P115

>  <fragmenstein_runtime>  (415) 
11.22823166847229

>  <fragmenstein_outcome>  (415) 
too moved

>  <fragmenstein_mode>  (415) 
expansion

>  <fragmenstein_error>  (415) 


$$$$
C3406-P64
     RDKit          3D

 54 58  0  0  0  0  0  0  0  0999 V2000
   -8.9921  -26.8064   28.0351 I   0  0  0  0  0  0  0  0  0  0  0  0
   -9.4997  -27.1834   30.0769 C   0  0  0  0  0  0  0  0  0  0  0  0
   -8.7584  -28.0680   30.8263 N   0  0  0  0  0  0  0  0  0  0  0  0
   -9.5432  -28.4103   31.8240 C   0  0  0  0  0  0  0  0  0  0  0  0
  -10.1373  -27.2979   32.1515 N   0  0  0  0  0  0  0  0  0  0  0  0
   -9.7290  -26.4786   31.2175 C   0  0  0  0  0  0  0  0  0  0  0  0
   -9.4214  -25.2923   31.7124 N   0  0  0  0  0  0  0  0  0  0  0  0
  -10.5408  -24.4832   31.4437 C   0  0  0  0  0  0  0  0  0  0  0  0
  -10.3882  -24.3234   29.9674 C   0  0  0  0  0  0  0  0  0  0  0  0
  -10.8634  -24.7266   28.7225 N   0  0  0  0  0  0  0  0  0  0  0  0
  -10.4688  -24.0936   27.5630 C   0  0  0  0  0  0  0  0  0  0  0  0
  -11.0701  -24.7931   26.5716 C   0  0  0  0  0  0  0  0  0  0  0  0
  -11.2375  -24.4622   25.2542 C   0  0  0  0  0  0  0  0  0  0  0  0
  -11.7925  -23.2332   24.5327 C   0  0  0  0  0  0  0  0  0  0  0  0
  -13.2132  -23.1256   24.0283 N   0  0  0  0  0  0  0  0  0  0  0  0
  -14.1352  -24.0172   24.7228 C   0  0  0  0  0  0  0  0  0  0  0  0
  -13.7771  -24.1422   26.1289 C   0  0  0  0  0  0  0  0  0  0  0  0
  -12.9793  -23.3502   26.8615 N   0  0  0  0  0  0  0  0  0  0  0  0
  -13.1219  -23.6552   28.1915 C   0  0  0  0  0  0  0  0  0  0  0  0
  -12.7005  -22.7114   29.3098 C   0  0  0  0  0  0  0  0  0  0  0  0
  -13.1650  -22.4884   30.6613 C   0  0  0  0  0  0  0  0  0  0  0  0
  -12.4426  -21.9364   31.7113 C   0  0  0  0  0  0  0  0  0  0  0  0
  -11.3069  -21.3101   31.3491 C   0  0  0  0  0  0  0  0  0  0  0  0
  -11.0842  -21.1740   29.9861 C   0  0  0  0  0  0  0  0  0  0  0  0
  -11.7580  -21.7994   28.9623 C   0  0  0  0  0  0  0  0  0  0  0  0
  -13.8643  -24.7626   28.2020 N   0  0  0  0  0  0  0  0  0  0  0  0
  -14.2528  -25.0748   26.9572 N   0  0  0  0  0  0  0  0  0  0  0  0
  -11.2484  -25.7513   24.7740 C   0  0  0  0  0  0  0  0  0  0  0  0
  -11.6422  -26.9950   25.3083 C   0  0  0  0  0  0  0  0  0  0  0  0
  -12.0802  -27.0872   26.5945 C   0  0  0  0  0  0  0  0  0  0  0  0
  -11.6055  -25.9730   27.2228 C   0  0  0  0  0  0  0  0  0  0  0  0
  -11.4858  -25.8522   28.5304 N   0  0  0  0  0  0  0  0  0  0  0  0
   -7.8565  -28.4462   30.6084 H   0  0  0  0  0  0  0  0  0  0  0  0
   -9.6107  -29.3380   32.3499 H   0  0  0  0  0  0  0  0  0  0  0  0
   -9.3099  -25.4362   32.7200 H   0  0  0  0  0  0  0  0  0  0  0  0
  -10.3384  -23.5605   31.9902 H   0  0  0  0  0  0  0  0  0  0  0  0
  -11.4742  -24.8434   31.8374 H   0  0  0  0  0  0  0  0  0  0  0  0
   -9.3203  -24.3998   29.7537 H   0  0  0  0  0  0  0  0  0  0  0  0
  -10.7622  -23.3623   29.9613 H   0  0  0  0  0  0  0  0  0  0  0  0
   -9.8623  -23.2308   27.6567 H   0  0  0  0  0  0  0  0  0  0  0  0
  -11.1341  -22.9547   23.7043 H   0  0  0  0  0  0  0  0  0  0  0  0
  -11.8260  -22.4311   25.2528 H   0  0  0  0  0  0  0  0  0  0  0  0
  -13.4773  -22.1791   24.3356 H   0  0  0  0  0  0  0  0  0  0  0  0
  -15.1443  -23.5966   24.6392 H   0  0  0  0  0  0  0  0  0  0  0  0
  -14.1927  -25.0020   24.2494 H   0  0  0  0  0  0  0  0  0  0  0  0
  -14.1909  -22.6549   30.9842 H   0  0  0  0  0  0  0  0  0  0  0  0
  -12.8117  -21.9487   32.7308 H   0  0  0  0  0  0  0  0  0  0  0  0
  -10.6796  -20.7947   32.0551 H   0  0  0  0  0  0  0  0  0  0  0  0
  -10.2603  -20.6234   29.6519 H   0  0  0  0  0  0  0  0  0  0  0  0
  -11.4200  -21.6909   27.9372 H   0  0  0  0  0  0  0  0  0  0  0  0
  -14.8552  -25.8744   26.8016 H   0  0  0  0  0  0  0  0  0  0  0  0
  -10.3124  -25.8759   24.2895 H   0  0  0  0  0  0  0  0  0  0  0  0
  -11.3647  -27.8831   24.7548 H   0  0  0  0  0  0  0  0  0  0  0  0
  -12.3081  -27.9565   27.1756 H   0  0  0  0  0  0  0  0  0  0  0  0
  1  2  1  0
  2  3  1  0
  3  4  1  0
  4  5  2  0
  5  6  1  0
  6  7  1  0
  7  8  1  0
  8  9  1  0
  9 10  1  0
 10 11  1  0
 11 12  2  0
 12 13  1  0
 13 14  1  0
 14 15  1  0
 15 16  1  0
 16 17  1  0
 17 18  2  0
 18 19  1  0
 19 20  1  0
 20 21  2  0
 21 22  1  0
 22 23  2  0
 23 24  1  0
 24 25  2  0
 19 26  2  0
 26 27  1  0
 13 28  2  0
 28 29  1  0
 29 30  2  0
 30 31  1  0
 31 32  2  0
  6  2  2  0
 32 10  1  0
 31 12  1  0
 27 17  1  0
 25 20  1  0
  3 33  1  0
  4 34  1  0
  7 35  1  0
  8 36  1  0
  8 37  1  0
  9 38  1  0
  9 39  1  0
 11 40  1  0
 14 41  1  0
 14 42  1  0
 15 43  1  0
 16 44  1  0
 16 45  1  0
 21 46  1  0
 22 47  1  0
 23 48  1  0
 24 49  1  0
 25 50  1  0
 27 51  1  0
 28 52  1  0
 29 53  1  0
 30 54  1  0
M  END
>  <Energy>  (416) 
431.42066347376675

>  <compound_id>  (416) 
3406

>  <target_id>  (416) 
1

>  <reference_id>  (416) 
64

>  <inspiration_ids>  (416) 
[115, 64]

>  <energy_score>  (416) 
362.18530876742113

>  <distance_score>  (416) 
2.3546150762639426

>  <path>  (416) 
/opt/xchem-fragalysis-2/maxwin/BulkDock/SCRATCH/505734/C3406-P64/C3406-P64.minimised.mol

>  <scratch_subdir>  (416) 
/opt/xchem-fragalysis-2/maxwin/BulkDock/SCRATCH/505734/C3406-P64

>  <fragmenstein_runtime>  (416) 
12.898773670196533

>  <fragmenstein_outcome>  (416) 
too moved

>  <fragmenstein_mode>  (416) 
expansion

>  <fragmenstein_error>  (416) 


$$$$
C3407-P115
     RDKit          3D

 55 59  0  0  0  0  0  0  0  0999 V2000
  -12.7504  -28.8218   28.0794 O   0  0  0  0  0  0  0  0  0  0  0  0
  -11.8288  -27.7168   27.8456 S   0  0  0  0  0  0  0  0  0  0  0  0
  -10.9877  -27.3904   28.9679 O   0  0  0  0  0  0  0  0  0  0  0  0
  -10.7160  -27.8483   26.0894 C   0  0  0  0  0  0  0  0  0  0  0  0
  -10.2175  -29.5108   25.5940 C   0  0  0  0  0  0  0  0  0  0  0  0
  -10.8728  -30.7127   25.9856 C   0  0  0  0  0  0  0  0  0  0  0  0
  -10.9488  -31.8354   25.1420 C   0  0  0  0  0  0  0  0  0  0  0  0
  -10.1286  -31.9272   24.0354 C   0  0  0  0  0  0  0  0  0  0  0  0
   -9.1871  -30.9349   23.8663 C   0  0  0  0  0  0  0  0  0  0  0  0
   -9.2014  -29.7970   24.6995 C   0  0  0  0  0  0  0  0  0  0  0  0
  -11.4134  -26.9004   25.1092 C   0  0  0  0  0  0  0  0  0  0  0  0
  -12.7822  -26.2302   25.2398 C   0  0  0  0  0  0  0  0  0  0  0  0
  -13.6119  -26.3124   26.4652 C   0  0  0  0  0  0  0  0  0  0  0  0
  -12.8150  -26.3776   27.6511 N   0  0  0  0  0  0  0  0  0  0  0  0
  -12.3721  -25.1990   28.2870 C   0  0  0  0  0  0  0  0  0  0  0  0
  -12.3766  -25.2140   29.6308 C   0  0  0  0  0  0  0  0  0  0  0  0
  -12.0168  -23.9946   30.3996 C   0  0  0  0  0  0  0  0  0  0  0  0
  -11.4501  -22.9674   29.7684 C   0  0  0  0  0  0  0  0  0  0  0  0
  -10.8636  -23.4113   28.5736 C   0  0  0  0  0  0  0  0  0  0  0  0
   -9.8287  -24.3463   28.3773 C   0  0  0  0  0  0  0  0  0  0  0  0
   -9.1866  -25.3723   29.3046 C   0  0  0  0  0  0  0  0  0  0  0  0
   -9.6128  -25.7405   30.7570 C   0  0  0  0  0  0  0  0  0  0  0  0
   -9.1744  -24.7824   31.7906 N   0  0  0  0  0  0  0  0  0  0  0  0
   -9.8005  -24.8909   32.9795 C   0  0  0  0  0  0  0  0  0  0  0  0
   -9.7930  -26.1013   33.5944 N   0  0  0  0  0  0  0  0  0  0  0  0
  -10.3960  -25.8831   34.7330 C   0  0  0  0  0  0  0  0  0  0  0  0
  -10.8100  -24.5934   34.8660 N   0  0  0  0  0  0  0  0  0  0  0  0
  -10.3541  -23.9153   33.7747 C   0  0  0  0  0  0  0  0  0  0  0  0
  -10.5139  -21.8772   33.5593 I   0  0  0  0  0  0  0  0  0  0  0  0
   -9.7843  -24.5439   27.0117 N   0  0  0  0  0  0  0  0  0  0  0  0
  -10.9498  -24.1105   26.5916 C   0  0  0  0  0  0  0  0  0  0  0  0
  -11.7123  -24.1011   27.7010 N   0  0  0  0  0  0  0  0  0  0  0  0
   -9.7812  -27.3435   26.3548 H   0  0  0  0  0  0  0  0  0  0  0  0
  -11.5391  -30.7054   26.8472 H   0  0  0  0  0  0  0  0  0  0  0  0
  -11.6237  -32.6511   25.3865 H   0  0  0  0  0  0  0  0  0  0  0  0
  -10.1314  -32.8065   23.4018 H   0  0  0  0  0  0  0  0  0  0  0  0
   -8.3739  -31.0690   23.1565 H   0  0  0  0  0  0  0  0  0  0  0  0
   -8.2567  -29.2761   24.7727 H   0  0  0  0  0  0  0  0  0  0  0  0
  -11.5065  -27.4768   24.2180 H   0  0  0  0  0  0  0  0  0  0  0  0
  -10.7127  -26.0975   24.9014 H   0  0  0  0  0  0  0  0  0  0  0  0
  -13.4378  -26.5419   24.4305 H   0  0  0  0  0  0  0  0  0  0  0  0
  -12.6627  -25.1671   25.0571 H   0  0  0  0  0  0  0  0  0  0  0  0
  -14.3649  -27.1047   26.4581 H   0  0  0  0  0  0  0  0  0  0  0  0
  -14.1968  -25.4014   26.4317 H   0  0  0  0  0  0  0  0  0  0  0  0
  -12.5577  -26.1384   30.1523 H   0  0  0  0  0  0  0  0  0  0  0  0
  -12.1693  -23.9317   31.4681 H   0  0  0  0  0  0  0  0  0  0  0  0
  -11.1879  -22.0315   30.2422 H   0  0  0  0  0  0  0  0  0  0  0  0
   -9.1639  -26.2911   28.7130 H   0  0  0  0  0  0  0  0  0  0  0  0
   -8.1494  -25.1513   29.3485 H   0  0  0  0  0  0  0  0  0  0  0  0
  -10.6562  -25.9709   30.8941 H   0  0  0  0  0  0  0  0  0  0  0  0
   -9.1639  -26.7053   31.0206 H   0  0  0  0  0  0  0  0  0  0  0  0
   -8.1988  -25.0318   31.9531 H   0  0  0  0  0  0  0  0  0  0  0  0
  -10.5712  -26.6220   35.4981 H   0  0  0  0  0  0  0  0  0  0  0  0
  -11.3037  -24.2043   35.6563 H   0  0  0  0  0  0  0  0  0  0  0  0
  -11.2699  -23.8707   25.5927 H   0  0  0  0  0  0  0  0  0  0  0  0
  1  2  2  0
  2  3  2  0
  2  4  1  0
  4  5  1  0
  5  6  2  0
  6  7  1  0
  7  8  2  0
  8  9  1  0
  9 10  2  0
  4 11  1  0
 11 12  1  0
 12 13  1  0
 13 14  1  0
 14 15  1  0
 15 16  2  0
 16 17  1  0
 17 18  2  0
 18 19  1  0
 19 20  2  0
 20 21  1  0
 21 22  1  0
 22 23  1  0
 23 24  1  0
 24 25  1  0
 25 26  2  0
 26 27  1  0
 27 28  1  0
 28 29  1  0
 20 30  1  0
 30 31  2  0
 31 32  1  0
 14  2  1  0
 32 15  1  0
 10  5  1  0
 32 19  1  0
 28 24  2  0
  4 33  1  0
  6 34  1  0
  7 35  1  0
  8 36  1  0
  9 37  1  0
 10 38  1  0
 11 39  1  0
 11 40  1  0
 12 41  1  0
 12 42  1  0
 13 43  1  0
 13 44  1  0
 16 45  1  0
 17 46  1  0
 18 47  1  0
 21 48  1  0
 21 49  1  0
 22 50  1  0
 22 51  1  0
 23 52  1  0
 26 53  1  0
 27 54  1  0
 31 55  1  0
M  END
>  <Energy>  (417) 
262.55714313926632

>  <compound_id>  (417) 
3407

>  <target_id>  (417) 
1

>  <reference_id>  (417) 
115

>  <inspiration_ids>  (417) 
[115, 75]

>  <energy_score>  (417) 
154.75195463957513

>  <distance_score>  (417) 
1.7952834210315591

>  <path>  (417) 
/opt/xchem-fragalysis-2/maxwin/BulkDock/SCRATCH/505734/C3407-P115/C3407-P115.minimised.mol

>  <scratch_subdir>  (417) 
/opt/xchem-fragalysis-2/maxwin/BulkDock/SCRATCH/505734/C3407-P115

>  <fragmenstein_runtime>  (417) 
12.52861475944519

>  <fragmenstein_outcome>  (417) 
too moved

>  <fragmenstein_mode>  (417) 
expansion

>  <fragmenstein_error>  (417) 


$$$$
C3407-P75
     RDKit          3D

 55 59  0  0  0  0  0  0  0  0999 V2000
  -13.0557  -28.9155   27.8310 O   0  0  0  0  0  0  0  0  0  0  0  0
  -12.1044  -27.8927   27.4198 S   0  0  0  0  0  0  0  0  0  0  0  0
  -10.9614  -27.6578   28.2632 O   0  0  0  0  0  0  0  0  0  0  0  0
  -11.6093  -28.2271   25.7818 C   0  0  0  0  0  0  0  0  0  0  0  0
  -11.2817  -29.6621   25.3152 C   0  0  0  0  0  0  0  0  0  0  0  0
  -11.8535  -30.8522   25.7747 C   0  0  0  0  0  0  0  0  0  0  0  0
  -11.7265  -32.0499   25.0416 C   0  0  0  0  0  0  0  0  0  0  0  0
  -10.8539  -32.1520   23.9665 C   0  0  0  0  0  0  0  0  0  0  0  0
  -10.1454  -31.0338   23.5781 C   0  0  0  0  0  0  0  0  0  0  0  0
  -10.4006  -29.8135   24.2119 C   0  0  0  0  0  0  0  0  0  0  0  0
  -12.3466  -27.2739   24.8265 C   0  0  0  0  0  0  0  0  0  0  0  0
  -13.7390  -26.6521   24.9890 C   0  0  0  0  0  0  0  0  0  0  0  0
  -14.1842  -26.4631   26.3872 C   0  0  0  0  0  0  0  0  0  0  0  0
  -12.9664  -26.3692   27.1674 N   0  0  0  0  0  0  0  0  0  0  0  0
  -12.3457  -25.0856   27.3729 C   0  0  0  0  0  0  0  0  0  0  0  0
  -13.0771  -24.1882   28.0254 C   0  0  0  0  0  0  0  0  0  0  0  0
  -12.4641  -23.0721   28.7115 C   0  0  0  0  0  0  0  0  0  0  0  0
  -11.1453  -22.8787   28.6988 C   0  0  0  0  0  0  0  0  0  0  0  0
  -10.3791  -23.9208   28.1481 C   0  0  0  0  0  0  0  0  0  0  0  0
   -9.4690  -24.8925   28.5619 C   0  0  0  0  0  0  0  0  0  0  0  0
   -9.2934  -25.4673   29.9079 C   0  0  0  0  0  0  0  0  0  0  0  0
  -10.4319  -25.1575   30.8176 C   0  0  0  0  0  0  0  0  0  0  0  0
  -10.3204  -23.8719   31.5266 N   0  0  0  0  0  0  0  0  0  0  0  0
  -11.4299  -23.4709   32.1747 C   0  0  0  0  0  0  0  0  0  0  0  0
  -12.1016  -22.3113   31.9433 N   0  0  0  0  0  0  0  0  0  0  0  0
  -13.0391  -22.2963   32.8721 C   0  0  0  0  0  0  0  0  0  0  0  0
  -12.9810  -23.3953   33.6838 N   0  0  0  0  0  0  0  0  0  0  0  0
  -11.9309  -24.1281   33.2516 C   0  0  0  0  0  0  0  0  0  0  0  0
  -11.0802  -25.7842   34.0099 I   0  0  0  0  0  0  0  0  0  0  0  0
   -9.1243  -25.6521   27.4756 N   0  0  0  0  0  0  0  0  0  0  0  0
  -10.0332  -25.3007   26.6054 C   0  0  0  0  0  0  0  0  0  0  0  0
  -11.0320  -24.7652   27.2835 N   0  0  0  0  0  0  0  0  0  0  0  0
  -10.5985  -27.8478   25.8570 H   0  0  0  0  0  0  0  0  0  0  0  0
  -12.4574  -30.8909   26.6763 H   0  0  0  0  0  0  0  0  0  0  0  0
  -12.2864  -32.9291   25.3506 H   0  0  0  0  0  0  0  0  0  0  0  0
  -10.7233  -33.0972   23.4504 H   0  0  0  0  0  0  0  0  0  0  0  0
   -9.4484  -31.0803   22.7472 H   0  0  0  0  0  0  0  0  0  0  0  0
   -9.9917  -28.9445   23.7326 H   0  0  0  0  0  0  0  0  0  0  0  0
  -12.2665  -27.6642   23.8315 H   0  0  0  0  0  0  0  0  0  0  0  0
  -11.7466  -26.3672   24.8678 H   0  0  0  0  0  0  0  0  0  0  0  0
  -14.5249  -27.1001   24.3966 H   0  0  0  0  0  0  0  0  0  0  0  0
  -13.6965  -25.6416   24.5764 H   0  0  0  0  0  0  0  0  0  0  0  0
  -14.8486  -27.2385   26.7649 H   0  0  0  0  0  0  0  0  0  0  0  0
  -14.7707  -25.5488   26.4079 H   0  0  0  0  0  0  0  0  0  0  0  0
  -14.0858  -24.4072   28.2158 H   0  0  0  0  0  0  0  0  0  0  0  0
  -13.0044  -22.5055   29.4483 H   0  0  0  0  0  0  0  0  0  0  0  0
  -10.7272  -22.0719   29.2846 H   0  0  0  0  0  0  0  0  0  0  0  0
   -9.3305  -26.5562   29.7907 H   0  0  0  0  0  0  0  0  0  0  0  0
   -8.3552  -25.2490   30.3888 H   0  0  0  0  0  0  0  0  0  0  0  0
  -11.3505  -25.1935   30.2550 H   0  0  0  0  0  0  0  0  0  0  0  0
  -10.4122  -25.9927   31.5040 H   0  0  0  0  0  0  0  0  0  0  0  0
   -9.5329  -23.9858   32.1641 H   0  0  0  0  0  0  0  0  0  0  0  0
  -13.7714  -21.5172   33.0222 H   0  0  0  0  0  0  0  0  0  0  0  0
  -13.5365  -23.6012   34.5034 H   0  0  0  0  0  0  0  0  0  0  0  0
  -10.0817  -25.3582   25.5433 H   0  0  0  0  0  0  0  0  0  0  0  0
  1  2  2  0
  2  3  2  0
  2  4  1  0
  4  5  1  0
  5  6  2  0
  6  7  1  0
  7  8  2  0
  8  9  1  0
  9 10  2  0
  4 11  1  0
 11 12  1  0
 12 13  1  0
 13 14  1  0
 14 15  1  0
 15 16  2  0
 16 17  1  0
 17 18  2  0
 18 19  1  0
 19 20  2  0
 20 21  1  0
 21 22  1  0
 22 23  1  0
 23 24  1  0
 24 25  1  0
 25 26  2  0
 26 27  1  0
 27 28  1  0
 28 29  1  0
 20 30  1  0
 30 31  2  0
 31 32  1  0
 14  2  1  0
 32 15  1  0
 10  5  1  0
 32 19  1  0
 28 24  2  0
  4 33  1  0
  6 34  1  0
  7 35  1  0
  8 36  1  0
  9 37  1  0
 10 38  1  0
 11 39  1  0
 11 40  1  0
 12 41  1  0
 12 42  1  0
 13 43  1  0
 13 44  1  0
 16 45  1  0
 17 46  1  0
 18 47  1  0
 21 48  1  0
 21 49  1  0
 22 50  1  0
 22 51  1  0
 23 52  1  0
 26 53  1  0
 27 54  1  0
 31 55  1  0
M  END
>  <Energy>  (418) 
176.14053537401668

>  <compound_id>  (418) 
3407

>  <target_id>  (418) 
1

>  <reference_id>  (418) 
75

>  <inspiration_ids>  (418) 
[115, 75]

>  <energy_score>  (418) 
68.33534687432245

>  <distance_score>  (418) 
2.351846353584654

>  <path>  (418) 
/opt/xchem-fragalysis-2/maxwin/BulkDock/SCRATCH/505734/C3407-P75/C3407-P75.minimised.mol

>  <scratch_subdir>  (418) 
/opt/xchem-fragalysis-2/maxwin/BulkDock/SCRATCH/505734/C3407-P75

>  <fragmenstein_runtime>  (418) 
11.11989688873291

>  <fragmenstein_outcome>  (418) 
too moved

>  <fragmenstein_mode>  (418) 
expansion

>  <fragmenstein_error>  (418) 


$$$$
C3408-P115
     RDKit          3D

 53 57  0  0  0  0  0  0  0  0999 V2000
   -6.2989  -24.6472   28.5883 C   0  0  0  0  0  0  0  0  0  0  0  0
   -7.8938  -25.1996   28.9639 C   0  0  0  0  0  0  0  0  0  0  0  0
   -9.3380  -25.7433   29.4075 C   0  0  0  0  0  0  0  0  0  0  0  0
   -9.8656  -25.4474   30.7915 N   0  0  0  0  0  0  0  0  0  0  0  0
  -10.7768  -24.4426   31.1208 C   0  0  0  0  0  0  0  0  0  0  0  0
  -11.8541  -23.5069   30.1084 S   0  0  0  0  0  0  0  0  0  0  0  0
  -12.1296  -22.2064   31.2945 C   0  0  0  0  0  0  0  0  0  0  0  0
  -11.0062  -21.5051   31.7660 C   0  0  0  0  0  0  0  0  0  0  0  0
  -10.8474  -20.8019   32.9641 C   0  0  0  0  0  0  0  0  0  0  0  0
  -11.9434  -20.5388   33.7484 C   0  0  0  0  0  0  0  0  0  0  0  0
  -13.1816  -21.0209   33.2465 C   0  0  0  0  0  0  0  0  0  0  0  0
  -14.4233  -20.6631   33.6228 N   0  0  0  0  0  0  0  0  0  0  0  0
  -15.2395  -21.1289   32.6756 N   0  0  0  0  0  0  0  0  0  0  0  0
  -16.6692  -20.9271   32.8295 C   0  0  0  0  0  0  0  0  0  0  0  0
  -17.3007  -22.0430   33.6569 C   0  0  0  0  0  0  0  0  0  0  0  0
  -18.4825  -21.6013   34.4246 N   0  0  0  0  0  0  0  0  0  0  0  0
  -18.5528  -22.1125   35.6783 C   0  0  0  0  0  0  0  0  0  0  0  0
  -18.5427  -21.2343   36.7228 N   0  0  0  0  0  0  0  0  0  0  0  0
  -18.3802  -21.9882   37.7881 C   0  0  0  0  0  0  0  0  0  0  0  0
  -18.3104  -23.3144   37.4627 N   0  0  0  0  0  0  0  0  0  0  0  0
  -18.5061  -23.4148   36.1146 C   0  0  0  0  0  0  0  0  0  0  0  0
  -18.6046  -25.1918   35.0751 I   0  0  0  0  0  0  0  0  0  0  0  0
  -14.5841  -21.7753   31.6645 C   0  0  0  0  0  0  0  0  0  0  0  0
  -13.2504  -21.8308   32.0443 C   0  0  0  0  0  0  0  0  0  0  0  0
  -10.5859  -24.0931   32.3699 N   0  0  0  0  0  0  0  0  0  0  0  0
   -9.5600  -24.7875   32.8478 N   0  0  0  0  0  0  0  0  0  0  0  0
   -9.4307  -25.8498   32.0777 C   0  0  0  0  0  0  0  0  0  0  0  0
   -9.1633  -27.1016   32.7961 C   0  0  0  0  0  0  0  0  0  0  0  0
   -8.4634  -28.2017   32.3748 C   0  0  0  0  0  0  0  0  0  0  0  0
   -8.1302  -29.2359   33.2632 C   0  0  0  0  0  0  0  0  0  0  0  0
   -8.5909  -29.1896   34.5592 C   0  0  0  0  0  0  0  0  0  0  0  0
   -9.3423  -28.1854   35.0194 N   0  0  0  0  0  0  0  0  0  0  0  0
   -9.5709  -27.1652   34.1414 C   0  0  0  0  0  0  0  0  0  0  0  0
   -6.1423  -23.7603   27.8331 H   0  0  0  0  0  0  0  0  0  0  0  0
   -5.4341  -24.4451   29.1474 H   0  0  0  0  0  0  0  0  0  0  0  0
   -7.7789  -25.2671   30.0543 H   0  0  0  0  0  0  0  0  0  0  0  0
   -9.4327  -26.8213   29.2831 H   0  0  0  0  0  0  0  0  0  0  0  0
  -10.0572  -25.2887   28.7179 H   0  0  0  0  0  0  0  0  0  0  0  0
  -10.1607  -21.4996   31.1310 H   0  0  0  0  0  0  0  0  0  0  0  0
   -9.8823  -20.3701   33.2206 H   0  0  0  0  0  0  0  0  0  0  0  0
  -11.8484  -19.8158   34.5491 H   0  0  0  0  0  0  0  0  0  0  0  0
  -17.1143  -20.8793   31.8295 H   0  0  0  0  0  0  0  0  0  0  0  0
  -16.8023  -19.9431   33.2949 H   0  0  0  0  0  0  0  0  0  0  0  0
  -17.5930  -22.8599   32.9872 H   0  0  0  0  0  0  0  0  0  0  0  0
  -16.5590  -22.4398   34.3505 H   0  0  0  0  0  0  0  0  0  0  0  0
  -18.5300  -20.5867   34.4910 H   0  0  0  0  0  0  0  0  0  0  0  0
  -18.2782  -21.6400   38.8064 H   0  0  0  0  0  0  0  0  0  0  0  0
  -18.0748  -24.0735   38.0906 H   0  0  0  0  0  0  0  0  0  0  0  0
  -15.1342  -22.1128   30.7998 H   0  0  0  0  0  0  0  0  0  0  0  0
   -8.1004  -28.2626   31.3678 H   0  0  0  0  0  0  0  0  0  0  0  0
   -7.5052  -30.0602   32.9460 H   0  0  0  0  0  0  0  0  0  0  0  0
   -8.3534  -29.9735   35.2705 H   0  0  0  0  0  0  0  0  0  0  0  0
  -10.1297  -26.3385   34.5859 H   0  0  0  0  0  0  0  0  0  0  0  0
  1  2  2  0
  2  3  1  0
  3  4  1  0
  4  5  1  0
  5  6  1  0
  6  7  1  0
  7  8  2  0
  8  9  1  0
  9 10  2  0
 10 11  1  0
 11 12  2  0
 12 13  1  0
 13 14  1  0
 14 15  1  0
 15 16  1  0
 16 17  1  0
 17 18  1  0
 18 19  2  0
 19 20  1  0
 20 21  1  0
 21 22  1  0
 13 23  1  0
 23 24  2  0
  5 25  2  0
 25 26  1  0
 26 27  2  0
 27 28  1  0
 28 29  2  0
 29 30  1  0
 30 31  2  0
 31 32  1  0
 32 33  2  0
 27  4  1  0
 33 28  1  0
 24  7  1  0
 24 11  1  0
 21 17  2  0
  1 34  1  0
  1 35  1  0
  2 36  1  0
  3 37  1  0
  3 38  1  0
  8 39  1  0
  9 40  1  0
 10 41  1  0
 14 42  1  0
 14 43  1  0
 15 44  1  0
 15 45  1  0
 16 46  1  0
 19 47  1  0
 20 48  1  0
 23 49  1  0
 29 50  1  0
 30 51  1  0
 31 52  1  0
 33 53  1  0
M  END
>  <Energy>  (419) 
258.65892489163099

>  <compound_id>  (419) 
3408

>  <target_id>  (419) 
1

>  <reference_id>  (419) 
115

>  <inspiration_ids>  (419) 
[115, 94]

>  <energy_score>  (419) 
181.74085597460908

>  <distance_score>  (419) 
4.665524494131348

>  <path>  (419) 
/opt/xchem-fragalysis-2/maxwin/BulkDock/SCRATCH/505734/C3408-P115/C3408-P115.minimised.mol

>  <scratch_subdir>  (419) 
/opt/xchem-fragalysis-2/maxwin/BulkDock/SCRATCH/505734/C3408-P115

>  <fragmenstein_runtime>  (419) 
119.89521265029907

>  <fragmenstein_outcome>  (419) 
too moved

>  <fragmenstein_mode>  (419) 
expansion

>  <fragmenstein_error>  (419) 


$$$$
C3408-P94
     RDKit          3D

 53 57  0  0  0  0  0  0  0  0999 V2000
   -6.4254  -24.6649   28.5115 C   0  0  0  0  0  0  0  0  0  0  0  0
   -7.9940  -25.1511   28.9689 C   0  0  0  0  0  0  0  0  0  0  0  0
   -9.4961  -24.8585   28.4660 C   0  0  0  0  0  0  0  0  0  0  0  0
  -10.5683  -24.9832   29.5040 N   0  0  0  0  0  0  0  0  0  0  0  0
  -11.0711  -24.0382   30.3816 C   0  0  0  0  0  0  0  0  0  0  0  0
  -12.0776  -22.6962   29.9579 S   0  0  0  0  0  0  0  0  0  0  0  0
  -12.3908  -22.0276   31.5686 C   0  0  0  0  0  0  0  0  0  0  0  0
  -11.3791  -21.3154   32.2139 C   0  0  0  0  0  0  0  0  0  0  0  0
  -11.5765  -20.5228   33.3808 C   0  0  0  0  0  0  0  0  0  0  0  0
  -12.7176  -20.5145   34.1759 C   0  0  0  0  0  0  0  0  0  0  0  0
  -13.7722  -21.1586   33.5453 C   0  0  0  0  0  0  0  0  0  0  0  0
  -15.0605  -21.1349   33.9056 N   0  0  0  0  0  0  0  0  0  0  0  0
  -15.6856  -21.6978   32.8690 N   0  0  0  0  0  0  0  0  0  0  0  0
  -17.0903  -22.0103   32.9746 C   0  0  0  0  0  0  0  0  0  0  0  0
  -17.3067  -23.5007   33.2318 C   0  0  0  0  0  0  0  0  0  0  0  0
  -18.6010  -23.7599   33.9019 N   0  0  0  0  0  0  0  0  0  0  0  0
  -18.5893  -23.6013   35.2424 C   0  0  0  0  0  0  0  0  0  0  0  0
  -19.2021  -22.5103   35.7823 N   0  0  0  0  0  0  0  0  0  0  0  0
  -18.8861  -22.5532   37.0594 C   0  0  0  0  0  0  0  0  0  0  0  0
  -18.1304  -23.6526   37.3549 N   0  0  0  0  0  0  0  0  0  0  0  0
  -17.9872  -24.3718   36.2036 C   0  0  0  0  0  0  0  0  0  0  0  0
  -17.0485  -26.1973   36.0665 I   0  0  0  0  0  0  0  0  0  0  0  0
  -14.8941  -21.8377   31.7708 C   0  0  0  0  0  0  0  0  0  0  0  0
  -13.6077  -21.8194   32.2549 C   0  0  0  0  0  0  0  0  0  0  0  0
  -10.7393  -24.4166   31.5978 N   0  0  0  0  0  0  0  0  0  0  0  0
  -10.4515  -25.7529   31.5175 N   0  0  0  0  0  0  0  0  0  0  0  0
  -10.7258  -26.1152   30.2751 C   0  0  0  0  0  0  0  0  0  0  0  0
  -11.5197  -27.2641   29.9009 C   0  0  0  0  0  0  0  0  0  0  0  0
  -11.8485  -28.2080   30.8894 C   0  0  0  0  0  0  0  0  0  0  0  0
  -12.7122  -29.2852   30.6050 C   0  0  0  0  0  0  0  0  0  0  0  0
  -13.2516  -29.3489   29.3314 C   0  0  0  0  0  0  0  0  0  0  0  0
  -12.9796  -28.4409   28.3603 N   0  0  0  0  0  0  0  0  0  0  0  0
  -12.1168  -27.4303   28.6566 C   0  0  0  0  0  0  0  0  0  0  0  0
   -6.2705  -23.7044   27.8122 H   0  0  0  0  0  0  0  0  0  0  0  0
   -5.5561  -24.4632   29.1515 H   0  0  0  0  0  0  0  0  0  0  0  0
   -8.1715  -25.2242   30.0552 H   0  0  0  0  0  0  0  0  0  0  0  0
   -9.7709  -25.5993   27.7101 H   0  0  0  0  0  0  0  0  0  0  0  0
   -9.5832  -23.8524   28.0489 H   0  0  0  0  0  0  0  0  0  0  0  0
  -10.4080  -21.2446   31.7416 H   0  0  0  0  0  0  0  0  0  0  0  0
  -10.7962  -19.8125   33.6427 H   0  0  0  0  0  0  0  0  0  0  0  0
  -12.8212  -19.9048   35.0604 H   0  0  0  0  0  0  0  0  0  0  0  0
  -17.5778  -21.7030   32.0422 H   0  0  0  0  0  0  0  0  0  0  0  0
  -17.5066  -21.3877   33.7749 H   0  0  0  0  0  0  0  0  0  0  0  0
  -16.4814  -23.9156   33.8184 H   0  0  0  0  0  0  0  0  0  0  0  0
  -17.3144  -24.0370   32.2764 H   0  0  0  0  0  0  0  0  0  0  0  0
  -19.3244  -23.1838   33.4774 H   0  0  0  0  0  0  0  0  0  0  0  0
  -19.1602  -21.8219   37.8073 H   0  0  0  0  0  0  0  0  0  0  0  0
  -17.7117  -23.8900   38.2486 H   0  0  0  0  0  0  0  0  0  0  0  0
  -15.3288  -22.0813   30.8184 H   0  0  0  0  0  0  0  0  0  0  0  0
  -11.3451  -28.1018   31.8407 H   0  0  0  0  0  0  0  0  0  0  0  0
  -12.9106  -30.0597   31.3355 H   0  0  0  0  0  0  0  0  0  0  0  0
  -13.9167  -30.1573   29.0393 H   0  0  0  0  0  0  0  0  0  0  0  0
  -11.9617  -26.7273   27.8443 H   0  0  0  0  0  0  0  0  0  0  0  0
  1  2  2  0
  2  3  1  0
  3  4  1  0
  4  5  1  0
  5  6  1  0
  6  7  1  0
  7  8  2  0
  8  9  1  0
  9 10  2  0
 10 11  1  0
 11 12  2  0
 12 13  1  0
 13 14  1  0
 14 15  1  0
 15 16  1  0
 16 17  1  0
 17 18  1  0
 18 19  2  0
 19 20  1  0
 20 21  1  0
 21 22  1  0
 13 23  1  0
 23 24  2  0
  5 25  2  0
 25 26  1  0
 26 27  2  0
 27 28  1  0
 28 29  2  0
 29 30  1  0
 30 31  2  0
 31 32  1  0
 32 33  2  0
 27  4  1  0
 33 28  1  0
 24  7  1  0
 24 11  1  0
 21 17  2  0
  1 34  1  0
  1 35  1  0
  2 36  1  0
  3 37  1  0
  3 38  1  0
  8 39  1  0
  9 40  1  0
 10 41  1  0
 14 42  1  0
 14 43  1  0
 15 44  1  0
 15 45  1  0
 16 46  1  0
 19 47  1  0
 20 48  1  0
 23 49  1  0
 29 50  1  0
 30 51  1  0
 31 52  1  0
 33 53  1  0
M  END
>  <Energy>  (420) 
180.32018079953139

>  <compound_id>  (420) 
3408

>  <target_id>  (420) 
1

>  <reference_id>  (420) 
94

>  <inspiration_ids>  (420) 
[115, 94]

>  <energy_score>  (420) 
103.40211188250441

>  <distance_score>  (420) 
5.107881741366065

>  <path>  (420) 
/opt/xchem-fragalysis-2/maxwin/BulkDock/SCRATCH/505734/C3408-P94/C3408-P94.minimised.mol

>  <scratch_subdir>  (420) 
/opt/xchem-fragalysis-2/maxwin/BulkDock/SCRATCH/505734/C3408-P94

>  <fragmenstein_runtime>  (420) 
76.32379055023193

>  <fragmenstein_outcome>  (420) 
too moved

>  <fragmenstein_mode>  (420) 
expansion

>  <fragmenstein_error>  (420) 


$$$$
C3409-P115
     RDKit          3D

 43 46  0  0  0  0  0  0  0  0999 V2000
  -12.0490  -22.2072   31.0897 I   0  0  0  0  0  0  0  0  0  0  0  0
  -11.5093  -23.3682   32.6976 C   0  0  0  0  0  0  0  0  0  0  0  0
  -11.3467  -22.9421   33.9818 N   0  0  0  0  0  0  0  0  0  0  0  0
  -10.8824  -23.9983   34.7115 C   0  0  0  0  0  0  0  0  0  0  0  0
  -10.7126  -25.0616   33.9620 N   0  0  0  0  0  0  0  0  0  0  0  0
  -11.1900  -24.7010   32.7368 C   0  0  0  0  0  0  0  0  0  0  0  0
  -11.1634  -25.5630   31.6983 N   0  0  0  0  0  0  0  0  0  0  0  0
   -9.9189  -26.3130   31.5586 C   0  0  0  0  0  0  0  0  0  0  0  0
   -8.8278  -25.3414   31.1012 C   0  0  0  0  0  0  0  0  0  0  0  0
   -8.7164  -25.1326   29.6388 N   0  0  0  0  0  0  0  0  0  0  0  0
   -9.7617  -25.5196   28.9603 N   0  0  0  0  0  0  0  0  0  0  0  0
   -9.2644  -26.5409   28.2755 C   0  0  0  0  0  0  0  0  0  0  0  0
   -7.8006  -26.6036   27.9762 C   0  0  0  0  0  0  0  0  0  0  0  0
   -6.8097  -26.9796   26.4541 C   0  0  0  0  0  0  0  0  0  0  0  0
   -8.6948  -28.1861   25.8575 S   0  0  0  0  0  0  0  0  0  0  0  0
  -10.4094  -27.3278   25.6459 C   0  0  0  0  0  0  0  0  0  0  0  0
  -11.1462  -25.9929   25.7233 C   0  0  0  0  0  0  0  0  0  0  0  0
  -12.4735  -26.0748   25.2580 C   0  0  0  0  0  0  0  0  0  0  0  0
  -13.4003  -25.0710   25.4045 C   0  0  0  0  0  0  0  0  0  0  0  0
  -13.0706  -23.9151   25.9400 N   0  0  0  0  0  0  0  0  0  0  0  0
  -11.8246  -23.7986   26.4294 C   0  0  0  0  0  0  0  0  0  0  0  0
  -10.8509  -24.7828   26.3275 C   0  0  0  0  0  0  0  0  0  0  0  0
   -6.2289  -25.1940   25.1560 C   0  0  0  0  0  0  0  0  0  0  0  0
   -6.0771  -23.6126   26.0559 C   0  0  0  0  0  0  0  0  0  0  0  0
   -6.4337  -23.6848   27.8015 C   0  0  0  0  0  0  0  0  0  0  0  0
   -7.5196  -25.1254   28.7184 C   0  0  0  0  0  0  0  0  0  0  0  0
  -11.5257  -22.0128   34.3284 H   0  0  0  0  0  0  0  0  0  0  0  0
  -10.6872  -23.9316   35.7723 H   0  0  0  0  0  0  0  0  0  0  0  0
  -11.4460  -25.1753   30.7959 H   0  0  0  0  0  0  0  0  0  0  0  0
  -10.0670  -27.1515   30.8733 H   0  0  0  0  0  0  0  0  0  0  0  0
   -9.6333  -26.7665   32.5165 H   0  0  0  0  0  0  0  0  0  0  0  0
   -7.8923  -25.6670   31.5214 H   0  0  0  0  0  0  0  0  0  0  0  0
   -9.0078  -24.3725   31.5535 H   0  0  0  0  0  0  0  0  0  0  0  0
  -10.0912  -27.0941   27.9190 H   0  0  0  0  0  0  0  0  0  0  0  0
  -10.9883  -27.8753   26.3813 H   0  0  0  0  0  0  0  0  0  0  0  0
  -10.7263  -27.7811   24.7099 H   0  0  0  0  0  0  0  0  0  0  0  0
  -12.8047  -26.9334   24.7107 H   0  0  0  0  0  0  0  0  0  0  0  0
  -14.4154  -25.1572   25.0365 H   0  0  0  0  0  0  0  0  0  0  0  0
  -11.6230  -22.8617   26.9428 H   0  0  0  0  0  0  0  0  0  0  0  0
   -9.9065  -24.5328   26.7829 H   0  0  0  0  0  0  0  0  0  0  0  0
   -6.1769  -25.0325   24.0395 H   0  0  0  0  0  0  0  0  0  0  0  0
   -5.0720  -23.5090   26.5112 H   0  0  0  0  0  0  0  0  0  0  0  0
   -6.9520  -22.6691   27.8754 H   0  0  0  0  0  0  0  0  0  0  0  0
  1  2  1  0
  2  3  1  0
  3  4  1  0
  4  5  2  0
  5  6  1  0
  6  7  1  0
  7  8  1  0
  8  9  1  0
  9 10  1  0
 10 11  1  0
 11 12  2  0
 12 13  1  0
 13 14  2  0
 14 15  1  0
 15 16  1  0
 16 17  1  0
 17 18  2  0
 18 19  1  0
 19 20  2  0
 20 21  1  0
 21 22  2  0
 14 23  1  0
 23 24  2  0
 24 25  1  0
 25 26  2  0
  6  2  2  0
 26 10  1  0
 26 13  1  0
 22 17  1  0
  3 27  1  0
  4 28  1  0
  7 29  1  0
  8 30  1  0
  8 31  1  0
  9 32  1  0
  9 33  1  0
 12 34  1  0
 16 35  1  0
 16 36  1  0
 18 37  1  0
 19 38  1  0
 21 39  1  0
 22 40  1  0
 23 41  1  0
 24 42  1  0
 25 43  1  0
M  END
>  <Energy>  (421) 
945.54074247437109

>  <compound_id>  (421) 
3409

>  <target_id>  (421) 
1

>  <reference_id>  (421) 
115

>  <inspiration_ids>  (421) 
[115, 101]

>  <energy_score>  (421) 
890.563145606726

>  <distance_score>  (421) 
3.1110419843190193

>  <path>  (421) 
/opt/xchem-fragalysis-2/maxwin/BulkDock/SCRATCH/505734/C3409-P115/C3409-P115.minimised.mol

>  <scratch_subdir>  (421) 
/opt/xchem-fragalysis-2/maxwin/BulkDock/SCRATCH/505734/C3409-P115

>  <fragmenstein_runtime>  (421) 
5.367309093475342

>  <fragmenstein_outcome>  (421) 
too moved

>  <fragmenstein_mode>  (421) 
expansion

>  <fragmenstein_error>  (421) 


$$$$
C3409-P101
     RDKit          3D

 43 46  0  0  0  0  0  0  0  0999 V2000
  -13.8230  -23.2113   33.6506 I   0  0  0  0  0  0  0  0  0  0  0  0
  -12.6965  -22.4727   32.1416 C   0  0  0  0  0  0  0  0  0  0  0  0
  -13.0340  -21.3620   31.4390 N   0  0  0  0  0  0  0  0  0  0  0  0
  -12.2117  -21.3055   30.3613 C   0  0  0  0  0  0  0  0  0  0  0  0
  -11.2925  -22.2172   30.4103 N   0  0  0  0  0  0  0  0  0  0  0  0
  -11.5976  -22.9634   31.4939 C   0  0  0  0  0  0  0  0  0  0  0  0
  -10.9537  -24.1321   31.6630 N   0  0  0  0  0  0  0  0  0  0  0  0
  -10.9176  -24.8965   30.4059 C   0  0  0  0  0  0  0  0  0  0  0  0
   -9.6851  -24.7280   29.5199 C   0  0  0  0  0  0  0  0  0  0  0  0
   -9.8837  -23.9424   28.1353 N   0  0  0  0  0  0  0  0  0  0  0  0
  -11.1696  -24.2501   27.6807 N   0  0  0  0  0  0  0  0  0  0  0  0
  -10.9413  -25.5711   27.6334 C   0  0  0  0  0  0  0  0  0  0  0  0
   -9.5597  -25.7510   27.2438 C   0  0  0  0  0  0  0  0  0  0  0  0
   -8.5585  -27.0345   27.0400 C   0  0  0  0  0  0  0  0  0  0  0  0
  -10.0947  -27.6479   25.6597 S   0  0  0  0  0  0  0  0  0  0  0  0
  -11.4053  -26.2723   25.2269 C   0  0  0  0  0  0  0  0  0  0  0  0
  -12.8520  -26.3665   25.7011 C   0  0  0  0  0  0  0  0  0  0  0  0
  -13.5066  -27.5350   26.0843 C   0  0  0  0  0  0  0  0  0  0  0  0
  -14.8764  -27.4981   26.3002 C   0  0  0  0  0  0  0  0  0  0  0  0
  -15.6240  -26.3818   26.2040 N   0  0  0  0  0  0  0  0  0  0  0  0
  -14.9771  -25.2536   25.8645 C   0  0  0  0  0  0  0  0  0  0  0  0
  -13.6205  -25.1942   25.6172 C   0  0  0  0  0  0  0  0  0  0  0  0
   -6.8248  -26.9240   26.2924 C   0  0  0  0  0  0  0  0  0  0  0  0
   -6.4289  -25.0355   25.1268 C   0  0  0  0  0  0  0  0  0  0  0  0
   -7.6009  -23.7821   25.6635 C   0  0  0  0  0  0  0  0  0  0  0  0
   -9.1733  -24.2619   26.6827 C   0  0  0  0  0  0  0  0  0  0  0  0
  -13.8205  -20.7588   31.6205 H   0  0  0  0  0  0  0  0  0  0  0  0
  -12.3127  -20.5752   29.5777 H   0  0  0  0  0  0  0  0  0  0  0  0
  -11.4104  -24.7018   32.3744 H   0  0  0  0  0  0  0  0  0  0  0  0
  -11.8502  -24.7486   29.8634 H   0  0  0  0  0  0  0  0  0  0  0  0
  -10.8707  -25.9428   30.6813 H   0  0  0  0  0  0  0  0  0  0  0  0
   -9.3235  -25.7321   29.3062 H   0  0  0  0  0  0  0  0  0  0  0  0
   -8.8805  -24.4245   30.1225 H   0  0  0  0  0  0  0  0  0  0  0  0
  -11.6877  -26.2880   27.9435 H   0  0  0  0  0  0  0  0  0  0  0  0
  -11.0063  -25.2571   25.1763 H   0  0  0  0  0  0  0  0  0  0  0  0
  -11.6000  -26.4803   24.1918 H   0  0  0  0  0  0  0  0  0  0  0  0
  -12.9972  -28.4791   26.2143 H   0  0  0  0  0  0  0  0  0  0  0  0
  -15.4225  -28.3965   26.5767 H   0  0  0  0  0  0  0  0  0  0  0  0
  -15.5984  -24.3692   25.7759 H   0  0  0  0  0  0  0  0  0  0  0  0
  -13.1659  -24.2357   25.3703 H   0  0  0  0  0  0  0  0  0  0  0  0
   -6.3247  -25.5891   25.2865 H   0  0  0  0  0  0  0  0  0  0  0  0
   -5.5173  -24.6092   24.4853 H   0  0  0  0  0  0  0  0  0  0  0  0
   -7.0492  -23.0887   26.3549 H   0  0  0  0  0  0  0  0  0  0  0  0
  1  2  1  0
  2  3  1  0
  3  4  1  0
  4  5  2  0
  5  6  1  0
  6  7  1  0
  7  8  1  0
  8  9  1  0
  9 10  1  0
 10 11  1  0
 11 12  2  0
 12 13  1  0
 13 14  2  0
 14 15  1  0
 15 16  1  0
 16 17  1  0
 17 18  2  0
 18 19  1  0
 19 20  2  0
 20 21  1  0
 21 22  2  0
 14 23  1  0
 23 24  2  0
 24 25  1  0
 25 26  2  0
  6  2  2  0
 26 10  1  0
 26 13  1  0
 22 17  1  0
  3 27  1  0
  4 28  1  0
  7 29  1  0
  8 30  1  0
  8 31  1  0
  9 32  1  0
  9 33  1  0
 12 34  1  0
 16 35  1  0
 16 36  1  0
 18 37  1  0
 19 38  1  0
 21 39  1  0
 22 40  1  0
 23 41  1  0
 24 42  1  0
 25 43  1  0
M  END
>  <Energy>  (422) 
1156.4414846185509

>  <compound_id>  (422) 
3409

>  <target_id>  (422) 
1

>  <reference_id>  (422) 
101

>  <inspiration_ids>  (422) 
[115, 101]

>  <energy_score>  (422) 
1101.4638877509158

>  <distance_score>  (422) 
4.670825561102208

>  <path>  (422) 
/opt/xchem-fragalysis-2/maxwin/BulkDock/SCRATCH/505734/C3409-P101/C3409-P101.minimised.mol

>  <scratch_subdir>  (422) 
/opt/xchem-fragalysis-2/maxwin/BulkDock/SCRATCH/505734/C3409-P101

>  <fragmenstein_runtime>  (422) 
9.74609088897705

>  <fragmenstein_outcome>  (422) 
too moved

>  <fragmenstein_mode>  (422) 
expansion

>  <fragmenstein_error>  (422) 


$$$$
C3410-P115
     RDKit          3D

 49 52  0  0  0  0  0  0  0  0999 V2000
  -14.5475  -25.0632   23.5942 O   0  0  0  0  0  0  0  0  0  0  0  0
  -14.5833  -23.8996   24.4371 S   0  0  0  0  0  0  0  0  0  0  0  0
  -14.1522  -22.6117   23.9606 O   0  0  0  0  0  0  0  0  0  0  0  0
  -16.2054  -23.7678   24.8958 N   0  0  0  0  0  0  0  0  0  0  0  0
  -17.0435  -25.0082   24.8309 C   0  0  0  0  0  0  0  0  0  0  0  0
  -18.4061  -24.7952   25.5200 C   0  0  0  0  0  0  0  0  0  0  0  0
  -19.1651  -23.6729   24.9502 N   0  0  0  0  0  0  0  0  0  0  0  0
  -18.3621  -22.4421   25.0474 C   0  0  0  0  0  0  0  0  0  0  0  0
  -16.9904  -22.5772   24.3578 C   0  0  0  0  0  0  0  0  0  0  0  0
  -13.6658  -24.3982   25.7326 N   0  0  0  0  0  0  0  0  0  0  0  0
  -12.3054  -23.7211   25.8677 C   0  0  0  0  0  0  0  0  0  0  0  0
  -11.0939  -24.6486   25.8064 C   0  0  0  0  0  0  0  0  0  0  0  0
  -11.3472  -25.7932   26.6636 C   0  0  0  0  0  0  0  0  0  0  0  0
  -10.5244  -26.3156   27.5543 N   0  0  0  0  0  0  0  0  0  0  0  0
  -11.4345  -26.7876   28.4319 N   0  0  0  0  0  0  0  0  0  0  0  0
  -11.1657  -26.5155   29.8139 C   0  0  0  0  0  0  0  0  0  0  0  0
  -10.9347  -25.0206   30.0158 C   0  0  0  0  0  0  0  0  0  0  0  0
   -9.8409  -24.8520   30.9503 N   0  0  0  0  0  0  0  0  0  0  0  0
  -10.1760  -24.8831   32.2358 C   0  0  0  0  0  0  0  0  0  0  0  0
  -10.9219  -23.9155   32.8092 N   0  0  0  0  0  0  0  0  0  0  0  0
  -11.0568  -24.3179   34.0502 C   0  0  0  0  0  0  0  0  0  0  0  0
  -10.4070  -25.4962   34.2734 N   0  0  0  0  0  0  0  0  0  0  0  0
   -9.8871  -25.8997   33.0908 C   0  0  0  0  0  0  0  0  0  0  0  0
   -9.0059  -27.6718   32.6789 I   0  0  0  0  0  0  0  0  0  0  0  0
  -12.7107  -26.9479   27.9996 N   0  0  0  0  0  0  0  0  0  0  0  0
  -12.6297  -26.2675   26.8546 C   0  0  0  0  0  0  0  0  0  0  0  0
  -13.6808  -25.8830   25.9215 C   0  0  0  0  0  0  0  0  0  0  0  0
  -17.2136  -25.2860   23.7845 H   0  0  0  0  0  0  0  0  0  0  0  0
  -16.5384  -25.8422   25.3211 H   0  0  0  0  0  0  0  0  0  0  0  0
  -19.0021  -25.7080   25.4109 H   0  0  0  0  0  0  0  0  0  0  0  0
  -18.2688  -24.6312   26.5948 H   0  0  0  0  0  0  0  0  0  0  0  0
  -20.0291  -23.5441   25.4773 H   0  0  0  0  0  0  0  0  0  0  0  0
  -18.9177  -21.6258   24.5723 H   0  0  0  0  0  0  0  0  0  0  0  0
  -18.2443  -22.1704   26.0996 H   0  0  0  0  0  0  0  0  0  0  0  0
  -16.4295  -21.6479   24.4897 H   0  0  0  0  0  0  0  0  0  0  0  0
  -17.1858  -22.6842   23.2900 H   0  0  0  0  0  0  0  0  0  0  0  0
  -12.2904  -23.2036   26.8326 H   0  0  0  0  0  0  0  0  0  0  0  0
  -12.1638  -22.9629   25.0965 H   0  0  0  0  0  0  0  0  0  0  0  0
  -10.8881  -24.9686   24.7907 H   0  0  0  0  0  0  0  0  0  0  0  0
  -10.2295  -24.1160   26.1929 H   0  0  0  0  0  0  0  0  0  0  0  0
  -10.2810  -27.1057   30.0460 H   0  0  0  0  0  0  0  0  0  0  0  0
  -11.9898  -26.8865   30.4125 H   0  0  0  0  0  0  0  0  0  0  0  0
  -10.6502  -24.4865   29.1045 H   0  0  0  0  0  0  0  0  0  0  0  0
  -11.8509  -24.5264   30.3543 H   0  0  0  0  0  0  0  0  0  0  0  0
   -9.0400  -25.4192   30.6861 H   0  0  0  0  0  0  0  0  0  0  0  0
  -11.6208  -23.8144   34.8241 H   0  0  0  0  0  0  0  0  0  0  0  0
  -10.4044  -26.0054   35.1446 H   0  0  0  0  0  0  0  0  0  0  0  0
  -14.6511  -26.2499   26.2469 H   0  0  0  0  0  0  0  0  0  0  0  0
  -13.4385  -26.3862   24.9812 H   0  0  0  0  0  0  0  0  0  0  0  0
  1  2  2  0
  2  3  2  0
  2  4  1  0
  4  5  1  0
  5  6  1  0
  6  7  1  0
  7  8  1  0
  8  9  1  0
  2 10  1  0
 10 11  1  0
 11 12  1  0
 12 13  1  0
 13 14  2  0
 14 15  1  0
 15 16  1  0
 16 17  1  0
 17 18  1  0
 18 19  1  0
 19 20  1  0
 20 21  2  0
 21 22  1  0
 22 23  1  0
 23 24  1  0
 15 25  1  0
 25 26  2  0
 26 27  1  0
  9  4  1  0
 27 10  1  0
 26 13  1  0
 23 19  2  0
  5 28  1  0
  5 29  1  0
  6 30  1  0
  6 31  1  0
  7 32  1  0
  8 33  1  0
  8 34  1  0
  9 35  1  0
  9 36  1  0
 11 37  1  0
 11 38  1  0
 12 39  1  0
 12 40  1  0
 16 41  1  0
 16 42  1  0
 17 43  1  0
 17 44  1  0
 18 45  1  0
 21 46  1  0
 22 47  1  0
 27 48  1  0
 27 49  1  0
M  END
>  <Energy>  (423) 
-74.532824408964203

>  <compound_id>  (423) 
3410

>  <target_id>  (423) 
1

>  <reference_id>  (423) 
115

>  <inspiration_ids>  (423) 
[115, 104]

>  <energy_score>  (423) 
-31.841309782140456

>  <distance_score>  (423) 
2.6855660653365585

>  <path>  (423) 
/opt/xchem-fragalysis-2/maxwin/BulkDock/SCRATCH/505734/C3410-P115/C3410-P115.minimised.mol

>  <scratch_subdir>  (423) 
/opt/xchem-fragalysis-2/maxwin/BulkDock/SCRATCH/505734/C3410-P115

>  <fragmenstein_runtime>  (423) 
4.4870734214782715

>  <fragmenstein_outcome>  (423) 
too moved

>  <fragmenstein_mode>  (423) 
expansion

>  <fragmenstein_error>  (423) 


$$$$
C3410-P104
     RDKit          3D

 49 52  0  0  0  0  0  0  0  0999 V2000
  -14.4873  -23.7838   23.6125 O   0  0  0  0  0  0  0  0  0  0  0  0
  -14.8817  -22.9500   24.7072 S   0  0  0  0  0  0  0  0  0  0  0  0
  -14.3332  -21.6232   24.8007 O   0  0  0  0  0  0  0  0  0  0  0  0
  -16.5345  -22.9141   24.6181 N   0  0  0  0  0  0  0  0  0  0  0  0
  -17.4035  -24.1188   24.5980 C   0  0  0  0  0  0  0  0  0  0  0  0
  -18.7148  -23.8452   23.8304 C   0  0  0  0  0  0  0  0  0  0  0  0
  -19.4541  -22.6919   24.3512 N   0  0  0  0  0  0  0  0  0  0  0  0
  -18.5709  -21.5084   24.3756 C   0  0  0  0  0  0  0  0  0  0  0  0
  -17.2650  -21.7492   25.1578 C   0  0  0  0  0  0  0  0  0  0  0  0
  -14.4306  -23.7635   26.0877 N   0  0  0  0  0  0  0  0  0  0  0  0
  -12.9478  -23.5471   26.3515 C   0  0  0  0  0  0  0  0  0  0  0  0
  -12.1014  -24.1683   25.2250 C   0  0  0  0  0  0  0  0  0  0  0  0
  -12.5304  -25.5757   25.1465 C   0  0  0  0  0  0  0  0  0  0  0  0
  -11.8455  -26.5964   24.6564 N   0  0  0  0  0  0  0  0  0  0  0  0
  -12.4086  -27.6165   25.3167 N   0  0  0  0  0  0  0  0  0  0  0  0
  -11.4734  -28.3500   26.1467 C   0  0  0  0  0  0  0  0  0  0  0  0
  -11.1674  -27.5442   27.4229 C   0  0  0  0  0  0  0  0  0  0  0  0
   -9.8393  -26.9110   27.6247 N   0  0  0  0  0  0  0  0  0  0  0  0
   -9.9563  -25.6577   28.1324 C   0  0  0  0  0  0  0  0  0  0  0  0
  -10.1818  -24.6127   27.3076 N   0  0  0  0  0  0  0  0  0  0  0  0
  -10.5031  -23.6067   28.0817 C   0  0  0  0  0  0  0  0  0  0  0  0
  -10.7143  -24.0634   29.3228 N   0  0  0  0  0  0  0  0  0  0  0  0
   -9.9906  -25.2038   29.4101 C   0  0  0  0  0  0  0  0  0  0  0  0
   -9.3655  -25.7270   31.1892 I   0  0  0  0  0  0  0  0  0  0  0  0
  -13.6751  -27.4004   25.7717 N   0  0  0  0  0  0  0  0  0  0  0  0
  -13.7290  -26.0674   25.6627 C   0  0  0  0  0  0  0  0  0  0  0  0
  -14.7993  -25.2078   26.1814 C   0  0  0  0  0  0  0  0  0  0  0  0
  -16.9086  -24.9578   24.1026 H   0  0  0  0  0  0  0  0  0  0  0  0
  -17.6430  -24.4087   25.6281 H   0  0  0  0  0  0  0  0  0  0  0  0
  -18.4986  -23.6849   22.7690 H   0  0  0  0  0  0  0  0  0  0  0  0
  -19.3552  -24.7317   23.8945 H   0  0  0  0  0  0  0  0  0  0  0  0
  -20.2493  -22.4890   23.7451 H   0  0  0  0  0  0  0  0  0  0  0  0
  -18.3312  -21.2180   23.3446 H   0  0  0  0  0  0  0  0  0  0  0  0
  -19.1198  -20.6750   24.8262 H   0  0  0  0  0  0  0  0  0  0  0  0
  -17.5029  -21.9673   26.2015 H   0  0  0  0  0  0  0  0  0  0  0  0
  -16.6549  -20.8506   25.0660 H   0  0  0  0  0  0  0  0  0  0  0  0
  -12.7641  -24.0301   27.3135 H   0  0  0  0  0  0  0  0  0  0  0  0
  -12.7332  -22.4812   26.4796 H   0  0  0  0  0  0  0  0  0  0  0  0
  -12.2359  -23.6094   24.3023 H   0  0  0  0  0  0  0  0  0  0  0  0
  -11.0329  -24.0961   25.3946 H   0  0  0  0  0  0  0  0  0  0  0  0
  -10.6084  -28.5360   25.5066 H   0  0  0  0  0  0  0  0  0  0  0  0
  -11.9715  -29.2971   26.3841 H   0  0  0  0  0  0  0  0  0  0  0  0
  -11.3294  -28.2033   28.2757 H   0  0  0  0  0  0  0  0  0  0  0  0
  -11.8996  -26.7482   27.4967 H   0  0  0  0  0  0  0  0  0  0  0  0
   -9.2819  -27.5159   28.2273 H   0  0  0  0  0  0  0  0  0  0  0  0
  -10.6779  -22.5780   27.7963 H   0  0  0  0  0  0  0  0  0  0  0  0
  -11.0917  -23.5603   30.1164 H   0  0  0  0  0  0  0  0  0  0  0  0
  -14.9987  -25.4549   27.2248 H   0  0  0  0  0  0  0  0  0  0  0  0
  -15.7181  -25.4511   25.6651 H   0  0  0  0  0  0  0  0  0  0  0  0
  1  2  2  0
  2  3  2  0
  2  4  1  0
  4  5  1  0
  5  6  1  0
  6  7  1  0
  7  8  1  0
  8  9  1  0
  2 10  1  0
 10 11  1  0
 11 12  1  0
 12 13  1  0
 13 14  2  0
 14 15  1  0
 15 16  1  0
 16 17  1  0
 17 18  1  0
 18 19  1  0
 19 20  1  0
 20 21  2  0
 21 22  1  0
 22 23  1  0
 23 24  1  0
 15 25  1  0
 25 26  2  0
 26 27  1  0
  9  4  1  0
 27 10  1  0
 26 13  1  0
 23 19  2  0
  5 28  1  0
  5 29  1  0
  6 30  1  0
  6 31  1  0
  7 32  1  0
  8 33  1  0
  8 34  1  0
  9 35  1  0
  9 36  1  0
 11 37  1  0
 11 38  1  0
 12 39  1  0
 12 40  1  0
 16 41  1  0
 16 42  1  0
 17 43  1  0
 17 44  1  0
 18 45  1  0
 21 46  1  0
 22 47  1  0
 27 48  1  0
 27 49  1  0
M  END
>  <Energy>  (424) 
-47.101821426989943

>  <compound_id>  (424) 
3410

>  <target_id>  (424) 
1

>  <reference_id>  (424) 
104

>  <inspiration_ids>  (424) 
[115, 104]

>  <energy_score>  (424) 
-4.410306800165529

>  <distance_score>  (424) 
3.0326109906366314

>  <path>  (424) 
/opt/xchem-fragalysis-2/maxwin/BulkDock/SCRATCH/505734/C3410-P104/C3410-P104.minimised.mol

>  <scratch_subdir>  (424) 
/opt/xchem-fragalysis-2/maxwin/BulkDock/SCRATCH/505734/C3410-P104

>  <fragmenstein_runtime>  (424) 
4.592775821685791

>  <fragmenstein_outcome>  (424) 
too moved

>  <fragmenstein_mode>  (424) 
expansion

>  <fragmenstein_error>  (424) 


$$$$
C3418-P116
     RDKit          3D

 53 54  0  0  0  0  0  0  0  0999 V2000
   -2.8215   -8.1759   31.2403 C   0  0  0  0  0  0  0  0  0  0  0  0
   -1.7857   -7.3873   30.5161 C   0  0  0  0  0  0  0  0  0  0  0  0
   -1.7911   -7.2652   29.0334 C   0  0  0  0  0  0  0  0  0  0  0  0
   -0.9510   -6.8439   31.4112 C   0  0  0  0  0  0  0  0  0  0  0  0
   -1.3740   -6.8059   32.6690 N   0  0  0  0  0  0  0  0  0  0  0  0
   -1.1230   -7.0841   33.9938 C   0  0  0  0  0  0  0  0  0  0  0  0
    0.2920   -7.4878   34.6277 C   0  0  0  0  0  0  0  0  0  0  0  0
   -1.9816   -8.7549   33.5463 C   0  0  0  0  0  0  0  0  0  0  0  0
   -3.3493   -9.1661   33.5198 O   0  0  0  0  0  0  0  0  0  0  0  0
   -1.4894   -5.7301   34.8512 C   0  0  0  0  0  0  0  0  0  0  0  0
   -0.5355   -5.2762   35.8376 O   0  0  0  0  0  0  0  0  0  0  0  0
    0.4148   -7.0772   31.5732 N   0  0  0  0  0  0  0  0  0  0  0  0
    0.3686   -8.6529   31.7995 N   0  0  0  0  0  0  0  0  0  0  0  0
   -0.1200   -9.8637   30.9349 C   0  0  0  0  0  0  0  0  0  0  0  0
   -0.1311   -9.8673   29.5544 C   0  0  0  0  0  0  0  0  0  0  0  0
   -0.1722  -10.9890   28.7025 C   0  0  0  0  0  0  0  0  0  0  0  0
   -0.1981  -12.2466   29.2528 C   0  0  0  0  0  0  0  0  0  0  0  0
   -0.2513  -12.3308   30.6294 C   0  0  0  0  0  0  0  0  0  0  0  0
   -0.2836  -11.1568   31.4302 C   0  0  0  0  0  0  0  0  0  0  0  0
   -0.7013  -11.3300   32.7161 O   0  0  0  0  0  0  0  0  0  0  0  0
    0.8781   -5.8315   32.6858 C   0  0  0  0  0  0  0  0  0  0  0  0
   -0.0196   -4.6225   32.7673 C   0  0  0  0  0  0  0  0  0  0  0  0
    0.2455   -3.4285   33.4794 C   0  0  0  0  0  0  0  0  0  0  0  0
    1.3981   -3.3320   34.2217 C   0  0  0  0  0  0  0  0  0  0  0  0
    2.2870   -4.3964   34.1970 C   0  0  0  0  0  0  0  0  0  0  0  0
    2.0709   -5.5847   33.4229 C   0  0  0  0  0  0  0  0  0  0  0  0
   -2.5110   -9.2004   31.4464 H   0  0  0  0  0  0  0  0  0  0  0  0
   -3.8018   -8.3827   30.8924 H   0  0  0  0  0  0  0  0  0  0  0  0
   -3.0777   -7.6736   32.1024 H   0  0  0  0  0  0  0  0  0  0  0  0
   -2.7831   -7.4442   28.6635 H   0  0  0  0  0  0  0  0  0  0  0  0
   -1.6377   -6.2603   28.6584 H   0  0  0  0  0  0  0  0  0  0  0  0
   -1.1656   -7.8988   28.4417 H   0  0  0  0  0  0  0  0  0  0  0  0
   -0.6767   -7.5921   32.6048 H   0  0  0  0  0  0  0  0  0  0  0  0
    0.7710   -6.7264   35.2406 H   0  0  0  0  0  0  0  0  0  0  0  0
    0.2635   -8.3141   35.3394 H   0  0  0  0  0  0  0  0  0  0  0  0
    1.0343   -7.7097   33.9034 H   0  0  0  0  0  0  0  0  0  0  0  0
   -1.4593   -9.1917   32.7359 H   0  0  0  0  0  0  0  0  0  0  0  0
   -1.6016   -9.4908   34.1572 H   0  0  0  0  0  0  0  0  0  0  0  0
   -3.8441   -9.0846   34.3568 H   0  0  0  0  0  0  0  0  0  0  0  0
   -1.6412   -4.8949   34.1916 H   0  0  0  0  0  0  0  0  0  0  0  0
   -2.3614   -5.7477   35.4751 H   0  0  0  0  0  0  0  0  0  0  0  0
   -0.6839   -4.3187   35.9251 H   0  0  0  0  0  0  0  0  0  0  0  0
    1.3399   -8.9694   31.9578 H   0  0  0  0  0  0  0  0  0  0  0  0
    0.0010   -8.9131   29.1490 H   0  0  0  0  0  0  0  0  0  0  0  0
   -0.1459  -10.8685   27.6227 H   0  0  0  0  0  0  0  0  0  0  0  0
   -0.2023  -13.1343   28.6283 H   0  0  0  0  0  0  0  0  0  0  0  0
   -0.3168  -13.3156   31.0838 H   0  0  0  0  0  0  0  0  0  0  0  0
   -0.8888  -12.2786   32.8529 H   0  0  0  0  0  0  0  0  0  0  0  0
   -0.9496   -4.5714   32.1962 H   0  0  0  0  0  0  0  0  0  0  0  0
   -0.4723   -2.6132   33.4449 H   0  0  0  0  0  0  0  0  0  0  0  0
    1.6163   -2.4387   34.7992 H   0  0  0  0  0  0  0  0  0  0  0  0
    3.2180   -4.3026   34.7585 H   0  0  0  0  0  0  0  0  0  0  0  0
    2.9908   -6.1078   33.4915 H   0  0  0  0  0  0  0  0  0  0  0  0
  1  2  1  0
  2  3  1  0
  2  4  2  3
  4  5  1  0
  5  6  1  0
  6  7  1  0
  6  8  1  0
  8  9  1  0
  6 10  1  0
 10 11  1  0
  4 12  1  0
 12 13  1  0
 13 14  1  0
 14 15  2  0
 15 16  1  0
 16 17  2  0
 17 18  1  0
 18 19  2  0
 19 20  1  0
 12 21  1  0
 21 22  2  0
 22 23  1  0
 23 24  2  0
 24 25  1  0
 25 26  2  0
 19 14  1  0
 26 21  1  0
  1 27  1  0
  1 28  1  0
  1 29  1  0
  3 30  1  0
  3 31  1  0
  3 32  1  0
  5 33  1  0
  7 34  1  0
  7 35  1  0
  7 36  1  0
  8 37  1  0
  8 38  1  0
  9 39  1  0
 10 40  1  0
 10 41  1  0
 11 42  1  0
 13 43  1  0
 15 44  1  0
 16 45  1  0
 17 46  1  0
 18 47  1  0
 20 48  1  0
 22 49  1  0
 23 50  1  0
 24 51  1  0
 25 52  1  0
 26 53  1  0
M  END
>  <Energy>  (425) 
582.80496755596096

>  <compound_id>  (425) 
3418

>  <target_id>  (425) 
1

>  <reference_id>  (425) 
116

>  <inspiration_ids>  (425) 
[116, 133]

>  <energy_score>  (425) 
432.34188096347975

>  <distance_score>  (425) 
2.522213753727756

>  <path>  (425) 
/opt/xchem-fragalysis-2/maxwin/BulkDock/SCRATCH/505734/C3418-P116/C3418-P116.minimised.mol

>  <scratch_subdir>  (425) 
/opt/xchem-fragalysis-2/maxwin/BulkDock/SCRATCH/505734/C3418-P116

>  <fragmenstein_runtime>  (425) 
15.791409969329834

>  <fragmenstein_outcome>  (425) 
too moved

>  <fragmenstein_mode>  (425) 
expansion

>  <fragmenstein_error>  (425) 


$$$$
C3418-P133
     RDKit          3D

 53 54  0  0  0  0  0  0  0  0999 V2000
    0.1016   -7.4838   34.8941 C   0  0  0  0  0  0  0  0  0  0  0  0
   -0.2491   -7.3099   33.4287 C   0  0  0  0  0  0  0  0  0  0  0  0
   -1.7039   -7.4515   33.2358 C   0  0  0  0  0  0  0  0  0  0  0  0
    0.6099   -6.9439   32.4491 C   0  0  0  0  0  0  0  0  0  0  0  0
    1.8298   -6.3706   32.8920 N   0  0  0  0  0  0  0  0  0  0  0  0
    2.0054   -5.0845   33.6923 C   0  0  0  0  0  0  0  0  0  0  0  0
    3.0370   -4.2205   32.9153 C   0  0  0  0  0  0  0  0  0  0  0  0
    2.6660   -5.4160   35.0620 C   0  0  0  0  0  0  0  0  0  0  0  0
    3.6301   -6.4615   34.8976 O   0  0  0  0  0  0  0  0  0  0  0  0
    0.7371   -4.2242   33.9096 C   0  0  0  0  0  0  0  0  0  0  0  0
    1.0009   -3.1104   34.7665 O   0  0  0  0  0  0  0  0  0  0  0  0
    0.4092   -7.0627   31.0046 N   0  0  0  0  0  0  0  0  0  0  0  0
   -0.4814   -7.9027   30.2776 N   0  0  0  0  0  0  0  0  0  0  0  0
   -0.4670   -9.2553   29.8038 C   0  0  0  0  0  0  0  0  0  0  0  0
   -0.5698   -9.6350   28.5206 C   0  0  0  0  0  0  0  0  0  0  0  0
   -1.5704  -10.8814   27.8773 C   0  0  0  0  0  0  0  0  0  0  0  0
   -2.4144  -11.7568   28.4571 C   0  0  0  0  0  0  0  0  0  0  0  0
   -2.0766  -11.5063   29.6922 C   0  0  0  0  0  0  0  0  0  0  0  0
   -1.1979  -10.2651   30.3952 C   0  0  0  0  0  0  0  0  0  0  0  0
   -1.5926   -9.7915   31.6300 O   0  0  0  0  0  0  0  0  0  0  0  0
    0.6133   -5.7920   30.3421 C   0  0  0  0  0  0  0  0  0  0  0  0
    1.6872   -5.5874   29.4690 C   0  0  0  0  0  0  0  0  0  0  0  0
    1.9069   -4.3316   28.8981 C   0  0  0  0  0  0  0  0  0  0  0  0
    1.0426   -3.2755   29.1772 C   0  0  0  0  0  0  0  0  0  0  0  0
   -0.0363   -3.4662   30.0335 C   0  0  0  0  0  0  0  0  0  0  0  0
   -0.2420   -4.7137   30.6180 C   0  0  0  0  0  0  0  0  0  0  0  0
   -0.1708   -6.6048   35.4824 H   0  0  0  0  0  0  0  0  0  0  0  0
    1.1553   -7.7267   35.0422 H   0  0  0  0  0  0  0  0  0  0  0  0
   -0.4547   -8.3213   35.3249 H   0  0  0  0  0  0  0  0  0  0  0  0
   -2.0297   -7.2936   32.2105 H   0  0  0  0  0  0  0  0  0  0  0  0
   -2.1429   -6.6683   33.8543 H   0  0  0  0  0  0  0  0  0  0  0  0
   -2.0857   -8.4059   33.5954 H   0  0  0  0  0  0  0  0  0  0  0  0
    2.3864   -6.2680   32.0461 H   0  0  0  0  0  0  0  0  0  0  0  0
    3.2873   -3.3018   33.4573 H   0  0  0  0  0  0  0  0  0  0  0  0
    3.9713   -4.7677   32.7456 H   0  0  0  0  0  0  0  0  0  0  0  0
    2.6484   -3.9278   31.9356 H   0  0  0  0  0  0  0  0  0  0  0  0
    1.9355   -5.7521   35.8009 H   0  0  0  0  0  0  0  0  0  0  0  0
    3.1778   -4.5488   35.4931 H   0  0  0  0  0  0  0  0  0  0  0  0
    3.1927   -7.0569   34.2601 H   0  0  0  0  0  0  0  0  0  0  0  0
    0.3737   -3.8144   32.9685 H   0  0  0  0  0  0  0  0  0  0  0  0
   -0.0789   -4.7836   34.3649 H   0  0  0  0  0  0  0  0  0  0  0  0
    0.1524   -2.6499   34.8991 H   0  0  0  0  0  0  0  0  0  0  0  0
   -1.3832   -7.4614   30.1106 H   0  0  0  0  0  0  0  0  0  0  0  0
   -0.1619   -8.9918   27.7997 H   0  0  0  0  0  0  0  0  0  0  0  0
   -1.8715  -10.8965   26.8443 H   0  0  0  0  0  0  0  0  0  0  0  0
   -3.0733  -12.4544   27.9972 H   0  0  0  0  0  0  0  0  0  0  0  0
   -2.5760  -12.3564   30.1452 H   0  0  0  0  0  0  0  0  0  0  0  0
   -0.8289   -9.2966   31.9740 H   0  0  0  0  0  0  0  0  0  0  0  0
    2.3600   -6.3946   29.2162 H   0  0  0  0  0  0  0  0  0  0  0  0
    2.7448   -4.1758   28.2235 H   0  0  0  0  0  0  0  0  0  0  0  0
    1.1998   -2.3033   28.7141 H   0  0  0  0  0  0  0  0  0  0  0  0
   -0.7135   -2.6415   30.2416 H   0  0  0  0  0  0  0  0  0  0  0  0
   -1.0651   -4.8403   31.3139 H   0  0  0  0  0  0  0  0  0  0  0  0
  1  2  1  0
  2  3  1  0
  2  4  2  3
  4  5  1  0
  5  6  1  0
  6  7  1  0
  6  8  1  0
  8  9  1  0
  6 10  1  0
 10 11  1  0
  4 12  1  0
 12 13  1  0
 13 14  1  0
 14 15  2  0
 15 16  1  0
 16 17  2  0
 17 18  1  0
 18 19  2  0
 19 20  1  0
 12 21  1  0
 21 22  2  0
 22 23  1  0
 23 24  2  0
 24 25  1  0
 25 26  2  0
 19 14  1  0
 26 21  1  0
  1 27  1  0
  1 28  1  0
  1 29  1  0
  3 30  1  0
  3 31  1  0
  3 32  1  0
  5 33  1  0
  7 34  1  0
  7 35  1  0
  7 36  1  0
  8 37  1  0
  8 38  1  0
  9 39  1  0
 10 40  1  0
 10 41  1  0
 11 42  1  0
 13 43  1  0
 15 44  1  0
 16 45  1  0
 17 46  1  0
 18 47  1  0
 20 48  1  0
 22 49  1  0
 23 50  1  0
 24 51  1  0
 25 52  1  0
 26 53  1  0
M  END
>  <Energy>  (426) 
239.20044592418594

>  <compound_id>  (426) 
3418

>  <target_id>  (426) 
1

>  <reference_id>  (426) 
133

>  <inspiration_ids>  (426) 
[116, 133]

>  <energy_score>  (426) 
88.73735933169871

>  <distance_score>  (426) 
3.0938256758238216

>  <path>  (426) 
/opt/xchem-fragalysis-2/maxwin/BulkDock/SCRATCH/505734/C3418-P133/C3418-P133.minimised.mol

>  <scratch_subdir>  (426) 
/opt/xchem-fragalysis-2/maxwin/BulkDock/SCRATCH/505734/C3418-P133

>  <fragmenstein_runtime>  (426) 
19.833326816558838

>  <fragmenstein_outcome>  (426) 
too moved

>  <fragmenstein_mode>  (426) 
expansion

>  <fragmenstein_error>  (426) 


$$$$
C1924-P116
     RDKit          3D

 58 59  0  0  0  0  0  0  0  0999 V2000
    1.7051   -2.4585   33.5886 C   0  0  0  0  0  0  0  0  0  0  0  0
    1.0260   -3.3218   34.6277 C   0  0  0  0  0  0  0  0  0  0  0  0
    0.7982   -2.8592   35.7140 O   0  0  0  0  0  0  0  0  0  0  0  0
    0.8064   -4.6397   34.1128 N   0  0  0  0  0  0  0  0  0  0  0  0
    0.3294   -5.8841   34.7912 C   0  0  0  0  0  0  0  0  0  0  0  0
    0.4602   -7.1779   33.9714 C   0  0  0  0  0  0  0  0  0  0  0  0
   -0.4671   -7.2366   32.8545 N   0  0  0  0  0  0  0  0  0  0  0  0
   -0.4331   -8.1606   31.7855 C   0  0  0  0  0  0  0  0  0  0  0  0
   -0.3384   -9.5184   31.6888 C   0  0  0  0  0  0  0  0  0  0  0  0
   -0.2019  -10.3081   30.3960 C   0  0  0  0  0  0  0  0  0  0  0  0
    0.1794  -11.7739   30.0284 C   0  0  0  0  0  0  0  0  0  0  0  0
   -0.6389  -12.0721   28.8748 C   0  0  0  0  0  0  0  0  0  0  0  0
   -0.8917  -13.3297   28.3696 C   0  0  0  0  0  0  0  0  0  0  0  0
   -0.3154  -14.3903   29.0014 C   0  0  0  0  0  0  0  0  0  0  0  0
    0.6350  -14.1509   29.9864 C   0  0  0  0  0  0  0  0  0  0  0  0
    1.0072  -12.8518   30.4511 C   0  0  0  0  0  0  0  0  0  0  0  0
    2.2199  -13.0337   31.2015 N   0  0  0  0  0  0  0  0  0  0  0  0
    3.2693  -12.0636   31.6026 C   0  0  0  0  0  0  0  0  0  0  0  0
    3.3163  -10.9004   31.4667 O   0  0  0  0  0  0  0  0  0  0  0  0
    4.3230  -13.0395   32.3311 N   0  0  0  0  0  0  0  0  0  0  0  0
    5.5999  -12.7169   33.1225 C   0  0  0  0  0  0  0  0  0  0  0  0
    6.0931  -11.6294   32.2454 C   0  0  0  0  0  0  0  0  0  0  0  0
    5.6139  -12.2094   34.6091 C   0  0  0  0  0  0  0  0  0  0  0  0
    4.7206  -11.2044   34.9395 O   0  0  0  0  0  0  0  0  0  0  0  0
    6.6218  -13.8878   33.3726 C   0  0  0  0  0  0  0  0  0  0  0  0
    6.0074  -14.9477   34.1277 O   0  0  0  0  0  0  0  0  0  0  0  0
   -1.2141   -5.9981   32.7981 C   0  0  0  0  0  0  0  0  0  0  0  0
   -0.5767   -4.7287   33.4633 C   0  0  0  0  0  0  0  0  0  0  0  0
    1.0379   -2.2775   32.7432 H   0  0  0  0  0  0  0  0  0  0  0  0
    1.9602   -1.4908   34.0323 H   0  0  0  0  0  0  0  0  0  0  0  0
    2.6338   -2.9307   33.2578 H   0  0  0  0  0  0  0  0  0  0  0  0
    1.0685   -5.9922   35.6012 H   0  0  0  0  0  0  0  0  0  0  0  0
   -0.5973   -5.7671   35.3763 H   0  0  0  0  0  0  0  0  0  0  0  0
    1.4610   -7.1632   33.5888 H   0  0  0  0  0  0  0  0  0  0  0  0
    0.3441   -8.0177   34.6492 H   0  0  0  0  0  0  0  0  0  0  0  0
   -0.4899   -7.6203   30.8417 H   0  0  0  0  0  0  0  0  0  0  0  0
   -0.3552  -10.1345   32.5608 H   0  0  0  0  0  0  0  0  0  0  0  0
   -1.2877  -10.4006   30.2705 H   0  0  0  0  0  0  0  0  0  0  0  0
    0.0818   -9.6613   29.5592 H   0  0  0  0  0  0  0  0  0  0  0  0
   -1.1556  -11.2689   28.3543 H   0  0  0  0  0  0  0  0  0  0  0  0
   -1.5565  -13.4593   27.5232 H   0  0  0  0  0  0  0  0  0  0  0  0
   -0.5436  -15.3982   28.6852 H   0  0  0  0  0  0  0  0  0  0  0  0
    1.1478  -15.0391   30.3575 H   0  0  0  0  0  0  0  0  0  0  0  0
    2.5378  -13.9637   31.3962 H   0  0  0  0  0  0  0  0  0  0  0  0
    3.9567  -13.9732   32.3513 H   0  0  0  0  0  0  0  0  0  0  0  0
    5.3687  -10.8988   31.9433 H   0  0  0  0  0  0  0  0  0  0  0  0
    6.2260  -12.0630   31.2598 H   0  0  0  0  0  0  0  0  0  0  0  0
    6.8848  -11.0514   32.7197 H   0  0  0  0  0  0  0  0  0  0  0  0
    5.4616  -13.0195   35.3250 H   0  0  0  0  0  0  0  0  0  0  0  0
    6.6083  -11.8101   34.8532 H   0  0  0  0  0  0  0  0  0  0  0  0
    4.6407  -10.6809   34.1143 H   0  0  0  0  0  0  0  0  0  0  0  0
    7.4906  -13.5389   33.9482 H   0  0  0  0  0  0  0  0  0  0  0  0
    7.0704  -14.3512   32.5156 H   0  0  0  0  0  0  0  0  0  0  0  0
    6.7044  -15.6053   34.3063 H   0  0  0  0  0  0  0  0  0  0  0  0
   -1.5857   -5.7776   31.8029 H   0  0  0  0  0  0  0  0  0  0  0  0
   -2.0852   -6.2189   33.3997 H   0  0  0  0  0  0  0  0  0  0  0  0
   -1.3017   -4.2386   34.1326 H   0  0  0  0  0  0  0  0  0  0  0  0
   -0.5198   -3.9926   32.6480 H   0  0  0  0  0  0  0  0  0  0  0  0
  1  2  1  0
  2  3  2  0
  2  4  1  0
  4  5  1  0
  5  6  1  0
  6  7  1  0
  7  8  1  0
  8  9  2  3
  9 10  1  0
 10 11  1  0
 11 12  2  0
 12 13  1  0
 13 14  2  0
 14 15  1  0
 15 16  2  0
 16 17  1  0
 17 18  1  0
 18 19  2  0
 18 20  1  0
 20 21  1  0
 21 22  1  0
 21 23  1  0
 23 24  1  0
 21 25  1  0
 25 26  1  0
  7 27  1  0
 27 28  1  0
 28  4  1  0
 16 11  1  0
  1 29  1  0
  1 30  1  0
  1 31  1  0
  5 32  1  0
  5 33  1  0
  6 34  1  0
  6 35  1  0
  8 36  1  0
  9 37  1  0
 10 38  1  0
 10 39  1  0
 12 40  1  0
 13 41  1  0
 14 42  1  0
 15 43  1  0
 17 44  1  0
 20 45  1  0
 22 46  1  0
 22 47  1  0
 22 48  1  0
 23 49  1  0
 23 50  1  0
 24 51  1  0
 25 52  1  0
 25 53  1  0
 26 54  1  0
 27 55  1  0
 27 56  1  0
 28 57  1  0
 28 58  1  0
M  END
>  <Energy>  (427) 
257.53647194004969

>  <compound_id>  (427) 
1924

>  <target_id>  (427) 
1

>  <reference_id>  (427) 
116

>  <inspiration_ids>  (427) 
[116, 134]

>  <energy_score>  (427) 
145.8017078046356

>  <distance_score>  (427) 
3.7875223325942384

>  <path>  (427) 
/opt/xchem-fragalysis-2/maxwin/BulkDock/SCRATCH/505734/C1924-P116/C1924-P116.minimised.mol

>  <scratch_subdir>  (427) 
/opt/xchem-fragalysis-2/maxwin/BulkDock/SCRATCH/505734/C1924-P116

>  <fragmenstein_runtime>  (427) 
33.1761999130249

>  <fragmenstein_outcome>  (427) 
too moved

>  <fragmenstein_mode>  (427) 
expansion

>  <fragmenstein_error>  (427) 


$$$$
C1924-P134
     RDKit          3D

 58 59  0  0  0  0  0  0  0  0999 V2000
    2.3468   -3.2949   36.3419 C   0  0  0  0  0  0  0  0  0  0  0  0
    1.5213   -4.5601   36.4511 C   0  0  0  0  0  0  0  0  0  0  0  0
    1.2499   -5.0123   37.5312 O   0  0  0  0  0  0  0  0  0  0  0  0
    1.2135   -5.0346   35.1440 N   0  0  0  0  0  0  0  0  0  0  0  0
    0.5461   -6.3133   34.6898 C   0  0  0  0  0  0  0  0  0  0  0  0
    0.5375   -6.5910   33.1718 C   0  0  0  0  0  0  0  0  0  0  0  0
   -0.1605   -5.5602   32.4235 N   0  0  0  0  0  0  0  0  0  0  0  0
   -0.5482   -5.6551   31.1076 C   0  0  0  0  0  0  0  0  0  0  0  0
   -0.4910   -6.5456   30.1016 C   0  0  0  0  0  0  0  0  0  0  0  0
    0.1917   -7.8611   29.8868 C   0  0  0  0  0  0  0  0  0  0  0  0
   -0.3398   -8.9371   29.0440 C   0  0  0  0  0  0  0  0  0  0  0  0
   -0.5727   -9.5432   27.9365 C   0  0  0  0  0  0  0  0  0  0  0  0
   -1.6919  -10.9318   27.3706 C   0  0  0  0  0  0  0  0  0  0  0  0
   -2.5361  -11.8128   27.9592 C   0  0  0  0  0  0  0  0  0  0  0  0
   -2.1765  -11.3767   29.1168 C   0  0  0  0  0  0  0  0  0  0  0  0
   -1.0555   -9.9740   29.2844 C   0  0  0  0  0  0  0  0  0  0  0  0
   -0.4579  -10.5301   30.1727 N   0  0  0  0  0  0  0  0  0  0  0  0
   -0.6290  -10.5413   31.3038 C   0  0  0  0  0  0  0  0  0  0  0  0
   -1.3642   -9.9644   31.9386 O   0  0  0  0  0  0  0  0  0  0  0  0
    0.6591  -12.0179   31.7970 N   0  0  0  0  0  0  0  0  0  0  0  0
    0.6852  -12.8259   33.5956 C   0  0  0  0  0  0  0  0  0  0  0  0
    2.1751  -13.9686   33.9103 C   0  0  0  0  0  0  0  0  0  0  0  0
    0.0284  -11.0591   34.8231 C   0  0  0  0  0  0  0  0  0  0  0  0
   -0.1892   -9.1806   35.0570 O   0  0  0  0  0  0  0  0  0  0  0  0
   -0.1648  -14.2068   33.9452 C   0  0  0  0  0  0  0  0  0  0  0  0
   -1.2996  -14.6291   33.2695 O   0  0  0  0  0  0  0  0  0  0  0  0
   -0.2440   -4.2805   33.1373 C   0  0  0  0  0  0  0  0  0  0  0  0
   -0.1048   -4.4367   34.6645 C   0  0  0  0  0  0  0  0  0  0  0  0
    3.2849   -3.4349   36.8862 H   0  0  0  0  0  0  0  0  0  0  0  0
    1.7862   -2.4644   36.7794 H   0  0  0  0  0  0  0  0  0  0  0  0
    2.5862   -3.0488   35.3032 H   0  0  0  0  0  0  0  0  0  0  0  0
    1.2353   -7.0654   35.1043 H   0  0  0  0  0  0  0  0  0  0  0  0
   -0.3870   -6.5775   35.2155 H   0  0  0  0  0  0  0  0  0  0  0  0
    1.5715   -6.6230   32.8180 H   0  0  0  0  0  0  0  0  0  0  0  0
    0.0664   -7.5603   32.9965 H   0  0  0  0  0  0  0  0  0  0  0  0
   -1.0397   -4.7161   30.8412 H   0  0  0  0  0  0  0  0  0  0  0  0
   -0.9849   -6.1862   29.2163 H   0  0  0  0  0  0  0  0  0  0  0  0
    0.3985   -8.1981   30.8878 H   0  0  0  0  0  0  0  0  0  0  0  0
    1.1291   -7.6008   29.4063 H   0  0  0  0  0  0  0  0  0  0  0  0
   -0.4327   -8.7382   27.2621 H   0  0  0  0  0  0  0  0  0  0  0  0
   -2.1420  -10.8105   26.3862 H   0  0  0  0  0  0  0  0  0  0  0  0
   -3.1858  -12.5188   27.5298 H   0  0  0  0  0  0  0  0  0  0  0  0
   -2.3931  -12.0998   29.8699 H   0  0  0  0  0  0  0  0  0  0  0  0
    0.3405  -11.1062   29.9815 H   0  0  0  0  0  0  0  0  0  0  0  0
    1.2594  -12.2886   31.0346 H   0  0  0  0  0  0  0  0  0  0  0  0
    2.2834  -14.6947   33.1013 H   0  0  0  0  0  0  0  0  0  0  0  0
    2.0276  -14.5120   34.8539 H   0  0  0  0  0  0  0  0  0  0  0  0
    3.1800  -13.5140   33.9826 H   0  0  0  0  0  0  0  0  0  0  0  0
    0.8459  -10.4913   34.8504 H   0  0  0  0  0  0  0  0  0  0  0  0
   -0.5614  -11.4245   35.7728 H   0  0  0  0  0  0  0  0  0  0  0  0
   -1.0763   -9.2723   35.4737 H   0  0  0  0  0  0  0  0  0  0  0  0
    0.4241  -15.1037   33.7365 H   0  0  0  0  0  0  0  0  0  0  0  0
   -0.1894  -14.3458   35.0284 H   0  0  0  0  0  0  0  0  0  0  0  0
   -1.9802  -14.6023   33.9738 H   0  0  0  0  0  0  0  0  0  0  0  0
    0.5568   -3.6261   32.7701 H   0  0  0  0  0  0  0  0  0  0  0  0
   -1.1986   -3.7846   32.9236 H   0  0  0  0  0  0  0  0  0  0  0  0
   -0.0779   -3.3966   35.0290 H   0  0  0  0  0  0  0  0  0  0  0  0
   -1.0084   -4.8040   35.1789 H   0  0  0  0  0  0  0  0  0  0  0  0
  1  2  1  0
  2  3  2  0
  2  4  1  0
  4  5  1  0
  5  6  1  0
  6  7  1  0
  7  8  1  0
  8  9  2  3
  9 10  1  0
 10 11  1  0
 11 12  2  0
 12 13  1  0
 13 14  2  0
 14 15  1  0
 15 16  2  0
 16 17  1  0
 17 18  1  0
 18 19  2  0
 18 20  1  0
 20 21  1  0
 21 22  1  0
 21 23  1  0
 23 24  1  0
 21 25  1  0
 25 26  1  0
  7 27  1  0
 27 28  1  0
 28  4  1  0
 16 11  1  0
  1 29  1  0
  1 30  1  0
  1 31  1  0
  5 32  1  0
  5 33  1  0
  6 34  1  0
  6 35  1  0
  8 36  1  0
  9 37  1  0
 10 38  1  0
 10 39  1  0
 12 40  1  0
 13 41  1  0
 14 42  1  0
 15 43  1  0
 17 44  1  0
 20 45  1  0
 22 46  1  0
 22 47  1  0
 22 48  1  0
 23 49  1  0
 23 50  1  0
 24 51  1  0
 25 52  1  0
 25 53  1  0
 26 54  1  0
 27 55  1  0
 27 56  1  0
 28 57  1  0
 28 58  1  0
M  END
>  <Energy>  (428) 
1019.1939999685588

>  <compound_id>  (428) 
1924

>  <target_id>  (428) 
1

>  <reference_id>  (428) 
134

>  <inspiration_ids>  (428) 
[116, 134]

>  <energy_score>  (428) 
907.459235833127

>  <distance_score>  (428) 
3.8834259730780296

>  <path>  (428) 
/opt/xchem-fragalysis-2/maxwin/BulkDock/SCRATCH/505734/C1924-P134/C1924-P134.minimised.mol

>  <scratch_subdir>  (428) 
/opt/xchem-fragalysis-2/maxwin/BulkDock/SCRATCH/505734/C1924-P134

>  <fragmenstein_runtime>  (428) 
40.519110918045044

>  <fragmenstein_outcome>  (428) 
too moved

>  <fragmenstein_mode>  (428) 
expansion

>  <fragmenstein_error>  (428) 


$$$$
C1140-P117
     RDKit          3D

 67 68  0  0  0  0  0  0  0  0999 V2000
   14.7755   -6.6060   22.0978 C   0  0  0  0  0  0  0  0  0  0  0  0
   15.9004   -6.1328   21.1739 C   0  0  0  0  0  0  0  0  0  0  0  0
   17.0788   -5.5821   21.9971 C   0  0  0  0  0  0  0  0  0  0  0  0
   17.1354   -4.0700   21.9357 C   0  0  0  0  0  0  0  0  0  0  0  0
   17.2249   -3.5775   20.4902 C   0  0  0  0  0  0  0  0  0  0  0  0
   16.5890   -4.4357   19.4809 N   0  0  0  0  0  0  0  0  0  0  0  0
   16.6048   -3.9427   17.8333 S   0  0  0  0  0  0  0  0  0  0  0  0
   18.0735   -4.6146   17.1159 C   0  0  0  0  0  0  0  0  0  0  0  0
   15.4935   -4.6281   17.2133 O   0  0  0  0  0  0  0  0  0  0  0  0
   16.7917   -2.4226   17.9060 N   0  0  0  0  0  0  0  0  0  0  0  0
   16.7188   -1.5929   16.6842 C   0  0  0  0  0  0  0  0  0  0  0  0
   15.2775   -1.4882   16.1246 C   0  0  0  0  0  0  0  0  0  0  0  0
   14.2596   -1.0990   17.3274 N   0  0  0  0  0  0  0  0  0  0  0  0
   14.5041    0.3161   17.8182 C   0  0  0  0  0  0  0  0  0  0  0  0
   14.0481    1.3038   17.4756 O   0  0  0  0  0  0  0  0  0  0  0  0
   15.4656    0.0152   18.9744 N   0  0  0  0  0  0  0  0  0  0  0  0
   15.9894    0.8842   20.0151 C   0  0  0  0  0  0  0  0  0  0  0  0
   17.4554    0.5187   20.2854 C   0  0  0  0  0  0  0  0  0  0  0  0
   15.1265    0.6314   21.2776 C   0  0  0  0  0  0  0  0  0  0  0  0
   15.0495   -0.7724   21.5796 O   0  0  0  0  0  0  0  0  0  0  0  0
   15.8806    2.3653   19.5877 C   0  0  0  0  0  0  0  0  0  0  0  0
   16.4858    3.2425   20.5311 O   0  0  0  0  0  0  0  0  0  0  0  0
   13.3147   -1.6042   16.3607 C   0  0  0  0  0  0  0  0  0  0  0  0
   12.6123   -0.7433   15.5083 C   0  0  0  0  0  0  0  0  0  0  0  0
   11.5434   -1.2348   14.7774 C   0  0  0  0  0  0  0  0  0  0  0  0
   11.1453   -2.5592   14.9445 C   0  0  0  0  0  0  0  0  0  0  0  0
   11.7977   -3.3994   15.8335 C   0  0  0  0  0  0  0  0  0  0  0  0
   12.8645   -2.9172   16.5612 C   0  0  0  0  0  0  0  0  0  0  0  0
   15.4373   -5.1731   20.0289 C   0  0  0  0  0  0  0  0  0  0  0  0
   14.2202   -4.2592   20.3225 C   0  0  0  0  0  0  0  0  0  0  0  0
   13.0150   -5.0281   20.2991 O   0  0  0  0  0  0  0  0  0  0  0  0
   13.9727   -7.0849   21.5301 H   0  0  0  0  0  0  0  0  0  0  0  0
   14.3535   -5.7803   22.6791 H   0  0  0  0  0  0  0  0  0  0  0  0
   15.1507   -7.3507   22.8087 H   0  0  0  0  0  0  0  0  0  0  0  0
   16.2843   -7.0417   20.6858 H   0  0  0  0  0  0  0  0  0  0  0  0
   17.0346   -5.9170   23.0398 H   0  0  0  0  0  0  0  0  0  0  0  0
   18.0156   -5.9839   21.5884 H   0  0  0  0  0  0  0  0  0  0  0  0
   17.9997   -3.7033   22.5015 H   0  0  0  0  0  0  0  0  0  0  0  0
   16.2476   -3.6520   22.4239 H   0  0  0  0  0  0  0  0  0  0  0  0
   16.7814   -2.5793   20.4691 H   0  0  0  0  0  0  0  0  0  0  0  0
   18.2843   -3.4681   20.2276 H   0  0  0  0  0  0  0  0  0  0  0  0
   18.9481   -4.1861   17.6093 H   0  0  0  0  0  0  0  0  0  0  0  0
   18.0840   -4.3795   16.0497 H   0  0  0  0  0  0  0  0  0  0  0  0
   18.0604   -5.6987   17.2492 H   0  0  0  0  0  0  0  0  0  0  0  0
   17.0882   -0.5919   16.9329 H   0  0  0  0  0  0  0  0  0  0  0  0
   17.3918   -1.9807   15.9111 H   0  0  0  0  0  0  0  0  0  0  0  0
   15.1098   -2.4623   15.6309 H   0  0  0  0  0  0  0  0  0  0  0  0
   15.2935   -0.6699   15.3859 H   0  0  0  0  0  0  0  0  0  0  0  0
   15.6075   -0.9954   19.0482 H   0  0  0  0  0  0  0  0  0  0  0  0
   17.5680   -0.5297   20.5724 H   0  0  0  0  0  0  0  0  0  0  0  0
   18.0674    0.6742   19.3893 H   0  0  0  0  0  0  0  0  0  0  0  0
   17.8800    1.1235   21.0938 H   0  0  0  0  0  0  0  0  0  0  0  0
   15.5317    1.1468   22.1543 H   0  0  0  0  0  0  0  0  0  0  0  0
   14.1022    0.9864   21.1133 H   0  0  0  0  0  0  0  0  0  0  0  0
   14.1653   -0.9282   21.9669 H   0  0  0  0  0  0  0  0  0  0  0  0
   14.8329    2.6682   19.4843 H   0  0  0  0  0  0  0  0  0  0  0  0
   16.3760    2.5231   18.6225 H   0  0  0  0  0  0  0  0  0  0  0  0
   16.3390    4.1457   20.1989 H   0  0  0  0  0  0  0  0  0  0  0  0
   12.8808    0.3060   15.4217 H   0  0  0  0  0  0  0  0  0  0  0  0
   10.9947   -0.5831   14.1010 H   0  0  0  0  0  0  0  0  0  0  0  0
   10.2859   -2.9296   14.4058 H   0  0  0  0  0  0  0  0  0  0  0  0
   11.4596   -4.4157   15.9954 H   0  0  0  0  0  0  0  0  0  0  0  0
   13.3248   -3.5544   17.3088 H   0  0  0  0  0  0  0  0  0  0  0  0
   15.1013   -5.8699   19.2572 H   0  0  0  0  0  0  0  0  0  0  0  0
   14.2941   -3.7590   21.2912 H   0  0  0  0  0  0  0  0  0  0  0  0
   14.1243   -3.4872   19.5528 H   0  0  0  0  0  0  0  0  0  0  0  0
   12.2785   -4.4172   20.0828 H   0  0  0  0  0  0  0  0  0  0  0  0
  1  2  1  0
  2  3  1  0
  3  4  1  0
  4  5  1  0
  5  6  1  0
  6  7  1  0
  7  8  1  0
  7  9  2  0
  7 10  2  0
 10 11  1  0
 11 12  1  0
 12 13  1  0
 13 14  1  0
 14 15  2  0
 14 16  1  0
 16 17  1  0
 17 18  1  0
 17 19  1  0
 19 20  1  0
 17 21  1  0
 21 22  1  0
 13 23  1  0
 23 24  2  0
 24 25  1  0
 25 26  2  0
 26 27  1  0
 27 28  2  0
  6 29  1  0
 29 30  1  0
 30 31  1  0
 29  2  1  0
 28 23  1  0
  1 32  1  0
  1 33  1  0
  1 34  1  0
  2 35  1  0
  3 36  1  0
  3 37  1  0
  4 38  1  0
  4 39  1  0
  5 40  1  0
  5 41  1  0
  8 42  1  0
  8 43  1  0
  8 44  1  0
 11 45  1  0
 11 46  1  0
 12 47  1  0
 12 48  1  0
 16 49  1  0
 18 50  1  0
 18 51  1  0
 18 52  1  0
 19 53  1  0
 19 54  1  0
 20 55  1  0
 21 56  1  0
 21 57  1  0
 22 58  1  0
 24 59  1  0
 25 60  1  0
 26 61  1  0
 27 62  1  0
 28 63  1  0
 29 64  1  0
 30 65  1  0
 30 66  1  0
 31 67  1  0
M  END
>  <Energy>  (429) 
45.362495011652449

>  <compound_id>  (429) 
1140

>  <target_id>  (429) 
1

>  <reference_id>  (429) 
117

>  <inspiration_ids>  (429) 
[117, 10]

>  <energy_score>  (429) 
-15.7149664404553

>  <distance_score>  (429) 
0.8201869396105783

>  <path>  (429) 
/opt/xchem-fragalysis-2/maxwin/BulkDock/SCRATCH/505734/C1140-P117/C1140-P117.minimised.mol

>  <scratch_subdir>  (429) 
/opt/xchem-fragalysis-2/maxwin/BulkDock/SCRATCH/505734/C1140-P117

>  <fragmenstein_runtime>  (429) 
6.0598368644714355

>  <fragmenstein_outcome>  (429) 
acceptable

>  <fragmenstein_mode>  (429) 
expansion

>  <fragmenstein_error>  (429) 


$$$$
C1140-P10
     RDKit          3D

 67 68  0  0  0  0  0  0  0  0999 V2000
   14.7135   -6.7788   21.9521 C   0  0  0  0  0  0  0  0  0  0  0  0
   15.8447   -6.2737   21.0537 C   0  0  0  0  0  0  0  0  0  0  0  0
   17.0055   -5.7279   21.9057 C   0  0  0  0  0  0  0  0  0  0  0  0
   17.0573   -4.2144   21.8677 C   0  0  0  0  0  0  0  0  0  0  0  0
   17.1669   -3.7004   20.4312 C   0  0  0  0  0  0  0  0  0  0  0  0
   16.5424   -4.5441   19.4037 N   0  0  0  0  0  0  0  0  0  0  0  0
   16.5860   -4.0445   17.7609 S   0  0  0  0  0  0  0  0  0  0  0  0
   18.0547   -4.7347   17.0615 C   0  0  0  0  0  0  0  0  0  0  0  0
   15.4733   -4.7138   17.1242 O   0  0  0  0  0  0  0  0  0  0  0  0
   16.8003   -2.5280   17.8476 N   0  0  0  0  0  0  0  0  0  0  0  0
   16.7809   -1.6911   16.6300 C   0  0  0  0  0  0  0  0  0  0  0  0
   15.3545   -1.5333   16.0498 C   0  0  0  0  0  0  0  0  0  0  0  0
   14.3326   -1.1161   17.2394 N   0  0  0  0  0  0  0  0  0  0  0  0
   14.6089    0.2926   17.7329 C   0  0  0  0  0  0  0  0  0  0  0  0
   14.1836    1.2925   17.3840 O   0  0  0  0  0  0  0  0  0  0  0  0
   15.5479   -0.0335   18.9021 N   0  0  0  0  0  0  0  0  0  0  0  0
   16.0818    0.8224   19.9498 C   0  0  0  0  0  0  0  0  0  0  0  0
   17.5380    0.4277   20.2291 C   0  0  0  0  0  0  0  0  0  0  0  0
   15.2072    0.5793   21.2092 C   0  0  0  0  0  0  0  0  0  0  0  0
   15.1099   -0.8228   21.5074 O   0  0  0  0  0  0  0  0  0  0  0  0
   16.0001    2.3079   19.5315 C   0  0  0  0  0  0  0  0  0  0  0  0
   16.5741    3.1733   20.5043 O   0  0  0  0  0  0  0  0  0  0  0  0
   13.3872   -1.5965   16.2615 C   0  0  0  0  0  0  0  0  0  0  0  0
   12.6975   -0.7207   15.4152 C   0  0  0  0  0  0  0  0  0  0  0  0
   11.5879   -1.1799   14.7231 C   0  0  0  0  0  0  0  0  0  0  0  0
   11.1405   -2.4843   14.9232 C   0  0  0  0  0  0  0  0  0  0  0  0
   11.7907   -3.3409   15.7946 C   0  0  0  0  0  0  0  0  0  0  0  0
   12.8999   -2.8942   16.4787 C   0  0  0  0  0  0  0  0  0  0  0  0
   15.3869   -5.2955   19.9229 C   0  0  0  0  0  0  0  0  0  0  0  0
   14.1650   -4.3898   20.2239 C   0  0  0  0  0  0  0  0  0  0  0  0
   12.9626   -5.1616   20.2047 O   0  0  0  0  0  0  0  0  0  0  0  0
   13.9231   -7.2527   21.3636 H   0  0  0  0  0  0  0  0  0  0  0  0
   14.2758   -5.9704   22.5463 H   0  0  0  0  0  0  0  0  0  0  0  0
   15.0873   -7.5355   22.6511 H   0  0  0  0  0  0  0  0  0  0  0  0
   16.2452   -7.1677   20.5516 H   0  0  0  0  0  0  0  0  0  0  0  0
   16.9449   -6.0778   22.9426 H   0  0  0  0  0  0  0  0  0  0  0  0
   17.9515   -6.1195   21.5081 H   0  0  0  0  0  0  0  0  0  0  0  0
   17.9121   -3.8536   22.4516 H   0  0  0  0  0  0  0  0  0  0  0  0
   16.1614   -3.8064   22.3494 H   0  0  0  0  0  0  0  0  0  0  0  0
   16.7300   -2.6985   20.4168 H   0  0  0  0  0  0  0  0  0  0  0  0
   18.2303   -3.5932   20.1847 H   0  0  0  0  0  0  0  0  0  0  0  0
   18.9286   -4.3206   17.5680 H   0  0  0  0  0  0  0  0  0  0  0  0
   18.0829   -4.4971   15.9961 H   0  0  0  0  0  0  0  0  0  0  0  0
   18.0243   -5.8189   17.1912 H   0  0  0  0  0  0  0  0  0  0  0  0
   17.1808   -0.7050   16.8910 H   0  0  0  0  0  0  0  0  0  0  0  0
   17.4529   -2.0977   15.8660 H   0  0  0  0  0  0  0  0  0  0  0  0
   15.1617   -2.4986   15.5474 H   0  0  0  0  0  0  0  0  0  0  0  0
   15.4065   -0.7122   15.3161 H   0  0  0  0  0  0  0  0  0  0  0  0
   15.6619   -1.0483   18.9780 H   0  0  0  0  0  0  0  0  0  0  0  0
   17.6279   -0.6266   20.5055 H   0  0  0  0  0  0  0  0  0  0  0  0
   18.1604    0.5804   19.3398 H   0  0  0  0  0  0  0  0  0  0  0  0
   17.9664    1.0176   21.0465 H   0  0  0  0  0  0  0  0  0  0  0  0
   15.6163    1.0865   22.0889 H   0  0  0  0  0  0  0  0  0  0  0  0
   14.1894    0.9508   21.0418 H   0  0  0  0  0  0  0  0  0  0  0  0
   14.2121   -0.9828   21.8608 H   0  0  0  0  0  0  0  0  0  0  0  0
   14.9596    2.6211   19.3944 H   0  0  0  0  0  0  0  0  0  0  0  0
   16.5302    2.4680   18.5853 H   0  0  0  0  0  0  0  0  0  0  0  0
   16.5215    4.0742   20.1401 H   0  0  0  0  0  0  0  0  0  0  0  0
   12.9966    0.3185   15.3151 H   0  0  0  0  0  0  0  0  0  0  0  0
   11.0384   -0.5158   14.0596 H   0  0  0  0  0  0  0  0  0  0  0  0
   10.2420   -2.8275   14.4318 H   0  0  0  0  0  0  0  0  0  0  0  0
   11.4099   -4.3357   15.9884 H   0  0  0  0  0  0  0  0  0  0  0  0
   13.3523   -3.5408   17.2231 H   0  0  0  0  0  0  0  0  0  0  0  0
   15.0621   -5.9750   19.1291 H   0  0  0  0  0  0  0  0  0  0  0  0
   14.2397   -3.8918   21.1935 H   0  0  0  0  0  0  0  0  0  0  0  0
   14.0658   -3.6151   19.4576 H   0  0  0  0  0  0  0  0  0  0  0  0
   12.2301   -4.5684   19.9294 H   0  0  0  0  0  0  0  0  0  0  0  0
  1  2  1  0
  2  3  1  0
  3  4  1  0
  4  5  1  0
  5  6  1  0
  6  7  1  0
  7  8  1  0
  7  9  2  0
  7 10  2  0
 10 11  1  0
 11 12  1  0
 12 13  1  0
 13 14  1  0
 14 15  2  0
 14 16  1  0
 16 17  1  0
 17 18  1  0
 17 19  1  0
 19 20  1  0
 17 21  1  0
 21 22  1  0
 13 23  1  0
 23 24  2  0
 24 25  1  0
 25 26  2  0
 26 27  1  0
 27 28  2  0
  6 29  1  0
 29 30  1  0
 30 31  1  0
 29  2  1  0
 28 23  1  0
  1 32  1  0
  1 33  1  0
  1 34  1  0
  2 35  1  0
  3 36  1  0
  3 37  1  0
  4 38  1  0
  4 39  1  0
  5 40  1  0
  5 41  1  0
  8 42  1  0
  8 43  1  0
  8 44  1  0
 11 45  1  0
 11 46  1  0
 12 47  1  0
 12 48  1  0
 16 49  1  0
 18 50  1  0
 18 51  1  0
 18 52  1  0
 19 53  1  0
 19 54  1  0
 20 55  1  0
 21 56  1  0
 21 57  1  0
 22 58  1  0
 24 59  1  0
 25 60  1  0
 26 61  1  0
 27 62  1  0
 28 63  1  0
 29 64  1  0
 30 65  1  0
 30 66  1  0
 31 67  1  0
M  END
>  <Energy>  (430) 
46.063030004546505

>  <compound_id>  (430) 
1140

>  <target_id>  (430) 
1

>  <reference_id>  (430) 
10

>  <inspiration_ids>  (430) 
[117, 10]

>  <energy_score>  (430) 
-15.014431447562117

>  <distance_score>  (430) 
0.8253248206356005

>  <path>  (430) 
/opt/xchem-fragalysis-2/maxwin/BulkDock/SCRATCH/505734/C1140-P10/C1140-P10.minimised.mol

>  <scratch_subdir>  (430) 
/opt/xchem-fragalysis-2/maxwin/BulkDock/SCRATCH/505734/C1140-P10

>  <fragmenstein_runtime>  (430) 
5.819238901138306

>  <fragmenstein_outcome>  (430) 
acceptable

>  <fragmenstein_mode>  (430) 
expansion

>  <fragmenstein_error>  (430) 


$$$$
C3428-P117
     RDKit          3D

 46 46  0  0  0  0  0  0  0  0999 V2000
   14.9406   -4.0431   20.5321 C   0  0  0  0  0  0  0  0  0  0  0  0
   13.7370   -3.7317   19.0042 N   0  0  0  0  0  0  0  0  0  0  0  0
   14.2205   -4.1020   20.1460 C   0  0  0  0  0  0  0  0  0  0  0  0
   14.2153   -3.8110   17.5053 C   0  0  0  0  0  0  0  0  0  0  0  0
   15.2110   -4.1434   17.0206 O   0  0  0  0  0  0  0  0  0  0  0  0
   12.9749   -3.3435   16.7025 C   0  0  0  0  0  0  0  0  0  0  0  0
   12.8252   -1.9421   16.4620 O   0  0  0  0  0  0  0  0  0  0  0  0
   13.6431   -1.5788   15.4193 C   0  0  0  0  0  0  0  0  0  0  0  0
   13.1486   -1.7147   14.1221 C   0  0  0  0  0  0  0  0  0  0  0  0
   14.0316   -1.6266   13.0504 C   0  0  0  0  0  0  0  0  0  0  0  0
   15.3911   -1.4172   13.2765 C   0  0  0  0  0  0  0  0  0  0  0  0
   15.8683   -1.2204   14.5723 C   0  0  0  0  0  0  0  0  0  0  0  0
   14.9814   -1.2335   15.6445 C   0  0  0  0  0  0  0  0  0  0  0  0
   15.4595   -0.8915   16.9060 N   0  0  0  0  0  0  0  0  0  0  0  0
   14.8015   -0.1678   18.0325 C   0  0  0  0  0  0  0  0  0  0  0  0
   13.7004    0.2135   18.1439 O   0  0  0  0  0  0  0  0  0  0  0  0
   15.9549   -0.0345   18.9512 N   0  0  0  0  0  0  0  0  0  0  0  0
   16.0905    0.6908   20.2181 C   0  0  0  0  0  0  0  0  0  0  0  0
   17.4205    0.2909   20.8722 C   0  0  0  0  0  0  0  0  0  0  0  0
   14.9111    0.3748   21.1768 C   0  0  0  0  0  0  0  0  0  0  0  0
   14.8134   -1.0189   21.4766 O   0  0  0  0  0  0  0  0  0  0  0  0
   16.0710    2.2085   19.9028 C   0  0  0  0  0  0  0  0  0  0  0  0
   16.3157    3.0025   21.0584 O   0  0  0  0  0  0  0  0  0  0  0  0
   15.8613   -3.3168   20.1956 H   0  0  0  0  0  0  0  0  0  0  0  0
   14.8503   -3.5581   21.6845 H   0  0  0  0  0  0  0  0  0  0  0  0
   15.6787   -5.0376   20.5275 H   0  0  0  0  0  0  0  0  0  0  0  0
   14.0197   -5.2460   19.6466 H   0  0  0  0  0  0  0  0  0  0  0  0
   13.3721   -3.2522   20.5298 H   0  0  0  0  0  0  0  0  0  0  0  0
   13.3135   -4.7078   20.8369 H   0  0  0  0  0  0  0  0  0  0  0  0
   12.9474   -3.9160   15.7689 H   0  0  0  0  0  0  0  0  0  0  0  0
   12.0808   -3.6766   17.2318 H   0  0  0  0  0  0  0  0  0  0  0  0
   12.1001   -1.9464   13.9526 H   0  0  0  0  0  0  0  0  0  0  0  0
   13.6786   -1.7662   12.0358 H   0  0  0  0  0  0  0  0  0  0  0  0
   16.0795   -1.3894   12.4357 H   0  0  0  0  0  0  0  0  0  0  0  0
   16.9229   -1.0110   14.7210 H   0  0  0  0  0  0  0  0  0  0  0  0
   16.4334   -0.9942   17.1029 H   0  0  0  0  0  0  0  0  0  0  0  0
   16.7307   -0.5490   18.5843 H   0  0  0  0  0  0  0  0  0  0  0  0
   17.5566    0.7786   21.8433 H   0  0  0  0  0  0  0  0  0  0  0  0
   17.4748   -0.7923   21.0312 H   0  0  0  0  0  0  0  0  0  0  0  0
   18.2694    0.5655   20.2353 H   0  0  0  0  0  0  0  0  0  0  0  0
   13.9627    0.6903   20.7337 H   0  0  0  0  0  0  0  0  0  0  0  0
   15.0250    0.9061   22.1279 H   0  0  0  0  0  0  0  0  0  0  0  0
   13.8721   -1.1743   21.7116 H   0  0  0  0  0  0  0  0  0  0  0  0
   15.1026    2.5040   19.4819 H   0  0  0  0  0  0  0  0  0  0  0  0
   16.8403    2.4532   19.1610 H   0  0  0  0  0  0  0  0  0  0  0  0
   16.1769    3.9293   20.7944 H   0  0  0  0  0  0  0  0  0  0  0  0
  1  2  1  0
  2  3  1  0
  2  4  1  0
  4  5  2  0
  4  6  1  0
  6  7  1  0
  7  8  1  0
  8  9  2  0
  9 10  1  0
 10 11  2  0
 11 12  1  0
 12 13  2  0
 13 14  1  0
 14 15  1  0
 15 16  2  0
 15 17  1  0
 17 18  1  0
 18 19  1  0
 18 20  1  0
 20 21  1  0
 18 22  1  0
 22 23  1  0
 13  8  1  0
  1 24  1  0
  1 25  1  0
  1 26  1  0
  3 27  1  0
  3 28  1  0
  3 29  1  0
  6 30  1  0
  6 31  1  0
  9 32  1  0
 10 33  1  0
 11 34  1  0
 12 35  1  0
 14 36  1  0
 17 37  1  0
 19 38  1  0
 19 39  1  0
 19 40  1  0
 20 41  1  0
 20 42  1  0
 21 43  1  0
 22 44  1  0
 22 45  1  0
 23 46  1  0
M  END
>  <Energy>  (431) 
790.59885217134092

>  <compound_id>  (431) 
3428

>  <target_id>  (431) 
1

>  <reference_id>  (431) 
117

>  <inspiration_ids>  (431) 
[117, 15]

>  <energy_score>  (431) 
738.9456047975962

>  <distance_score>  (431) 
2.124118513761555

>  <path>  (431) 
/opt/xchem-fragalysis-2/maxwin/BulkDock/SCRATCH/505734/C3428-P117/C3428-P117.minimised.mol

>  <scratch_subdir>  (431) 
/opt/xchem-fragalysis-2/maxwin/BulkDock/SCRATCH/505734/C3428-P117

>  <fragmenstein_runtime>  (431) 
7.825146913528442

>  <fragmenstein_outcome>  (431) 
too moved

>  <fragmenstein_mode>  (431) 
expansion

>  <fragmenstein_error>  (431) 


$$$$
C3428-P15
     RDKit          3D

 46 46  0  0  0  0  0  0  0  0999 V2000
   17.0721   -2.6570   23.5026 C   0  0  0  0  0  0  0  0  0  0  0  0
   15.8891   -3.1342   22.0060 N   0  0  0  0  0  0  0  0  0  0  0  0
   16.9338   -2.9640   22.7569 C   0  0  0  0  0  0  0  0  0  0  0  0
   14.4118   -3.7001   22.2218 C   0  0  0  0  0  0  0  0  0  0  0  0
   13.8316   -4.0257   23.1663 O   0  0  0  0  0  0  0  0  0  0  0  0
   13.8544   -3.8338   20.7880 C   0  0  0  0  0  0  0  0  0  0  0  0
   14.0696   -2.6822   19.9783 O   0  0  0  0  0  0  0  0  0  0  0  0
   14.3155   -2.9233   18.6534 C   0  0  0  0  0  0  0  0  0  0  0  0
   13.6462   -3.9144   17.9427 C   0  0  0  0  0  0  0  0  0  0  0  0
   14.0605   -4.2426   16.6583 C   0  0  0  0  0  0  0  0  0  0  0  0
   15.1613   -3.6048   16.0917 C   0  0  0  0  0  0  0  0  0  0  0  0
   15.7878   -2.5652   16.7675 C   0  0  0  0  0  0  0  0  0  0  0  0
   15.3221   -2.1805   18.0218 C   0  0  0  0  0  0  0  0  0  0  0  0
   15.8958   -1.0580   18.6025 N   0  0  0  0  0  0  0  0  0  0  0  0
   15.3410   -0.0764   19.5756 C   0  0  0  0  0  0  0  0  0  0  0  0
   14.2628    0.0198   20.0185 O   0  0  0  0  0  0  0  0  0  0  0  0
   16.5677    0.6761   19.8909 N   0  0  0  0  0  0  0  0  0  0  0  0
   16.7839    1.8192   20.7698 C   0  0  0  0  0  0  0  0  0  0  0  0
   18.2875    1.9221   21.0558 C   0  0  0  0  0  0  0  0  0  0  0  0
   16.0108    1.6188   22.1022 C   0  0  0  0  0  0  0  0  0  0  0  0
   16.2394    0.3161   22.6513 O   0  0  0  0  0  0  0  0  0  0  0  0
   16.2583    3.0921   20.0699 C   0  0  0  0  0  0  0  0  0  0  0  0
   16.5257    4.2628   20.8309 O   0  0  0  0  0  0  0  0  0  0  0  0
   17.8638   -1.6888   23.5235 H   0  0  0  0  0  0  0  0  0  0  0  0
   17.3167   -3.4689   24.4091 H   0  0  0  0  0  0  0  0  0  0  0  0
   16.2478   -2.0891   24.2002 H   0  0  0  0  0  0  0  0  0  0  0  0
   18.0040   -3.3780   22.1658 H   0  0  0  0  0  0  0  0  0  0  0  0
   17.2124   -2.1723   21.8124 H   0  0  0  0  0  0  0  0  0  0  0  0
   16.9227   -4.2314   22.7292 H   0  0  0  0  0  0  0  0  0  0  0  0
   14.3243   -4.7340   20.3695 H   0  0  0  0  0  0  0  0  0  0  0  0
   12.7766   -4.0036   20.8716 H   0  0  0  0  0  0  0  0  0  0  0  0
   12.8178   -4.4509   18.3914 H   0  0  0  0  0  0  0  0  0  0  0  0
   13.5386   -5.0261   16.1228 H   0  0  0  0  0  0  0  0  0  0  0  0
   15.5331   -3.8953   15.1142 H   0  0  0  0  0  0  0  0  0  0  0  0
   16.6039   -2.0363   16.2850 H   0  0  0  0  0  0  0  0  0  0  0  0
   16.8335   -0.8044   18.3756 H   0  0  0  0  0  0  0  0  0  0  0  0
   17.2966    0.3944   19.2675 H   0  0  0  0  0  0  0  0  0  0  0  0
   18.5134    2.7422   21.7457 H   0  0  0  0  0  0  0  0  0  0  0  0
   18.6715    0.9964   21.5004 H   0  0  0  0  0  0  0  0  0  0  0  0
   18.8524    2.0956   20.1325 H   0  0  0  0  0  0  0  0  0  0  0  0
   14.9295    1.7361   21.9663 H   0  0  0  0  0  0  0  0  0  0  0  0
   16.3246    2.3551   22.8500 H   0  0  0  0  0  0  0  0  0  0  0  0
   15.6479   -0.2781   22.1416 H   0  0  0  0  0  0  0  0  0  0  0  0
   15.1763    3.0253   19.9049 H   0  0  0  0  0  0  0  0  0  0  0  0
   16.7332    3.2134   19.0893 H   0  0  0  0  0  0  0  0  0  0  0  0
   16.0445    4.9929   20.4025 H   0  0  0  0  0  0  0  0  0  0  0  0
  1  2  1  0
  2  3  1  0
  2  4  1  0
  4  5  2  0
  4  6  1  0
  6  7  1  0
  7  8  1  0
  8  9  2  0
  9 10  1  0
 10 11  2  0
 11 12  1  0
 12 13  2  0
 13 14  1  0
 14 15  1  0
 15 16  2  0
 15 17  1  0
 17 18  1  0
 18 19  1  0
 18 20  1  0
 20 21  1  0
 18 22  1  0
 22 23  1  0
 13  8  1  0
  1 24  1  0
  1 25  1  0
  1 26  1  0
  3 27  1  0
  3 28  1  0
  3 29  1  0
  6 30  1  0
  6 31  1  0
  9 32  1  0
 10 33  1  0
 11 34  1  0
 12 35  1  0
 14 36  1  0
 17 37  1  0
 19 38  1  0
 19 39  1  0
 19 40  1  0
 20 41  1  0
 20 42  1  0
 21 43  1  0
 22 44  1  0
 22 45  1  0
 23 46  1  0
M  END
>  <Energy>  (432) 
785.04977092356489

>  <compound_id>  (432) 
3428

>  <target_id>  (432) 
1

>  <reference_id>  (432) 
15

>  <inspiration_ids>  (432) 
[117, 15]

>  <energy_score>  (432) 
733.3965235498201

>  <distance_score>  (432) 
3.0947011994833087

>  <path>  (432) 
/opt/xchem-fragalysis-2/maxwin/BulkDock/SCRATCH/505734/C3428-P15/C3428-P15.minimised.mol

>  <scratch_subdir>  (432) 
/opt/xchem-fragalysis-2/maxwin/BulkDock/SCRATCH/505734/C3428-P15

>  <fragmenstein_runtime>  (432) 
7.3268043994903564

>  <fragmenstein_outcome>  (432) 
too moved

>  <fragmenstein_mode>  (432) 
expansion

>  <fragmenstein_error>  (432) 


$$$$
C3429-P117
     RDKit          3D

 60 61  0  0  0  0  0  0  0  0999 V2000
   14.4259   -0.9267   18.4875 C   0  0  0  0  0  0  0  0  0  0  0  0
   14.4214   -2.4236   18.7426 C   0  0  0  0  0  0  0  0  0  0  0  0
   15.6377   -2.8591   19.5857 C   0  0  0  0  0  0  0  0  0  0  0  0
   16.8870   -2.4915   19.0236 N   0  0  0  0  0  0  0  0  0  0  0  0
   17.7731   -1.7123   18.8365 C   0  0  0  0  0  0  0  0  0  0  0  0
   17.9634   -0.2358   19.3516 N   0  0  0  0  0  0  0  0  0  0  0  0
   17.1507    0.5672   20.2879 C   0  0  0  0  0  0  0  0  0  0  0  0
   18.2374    1.2715   21.1445 C   0  0  0  0  0  0  0  0  0  0  0  0
   16.4130    1.6888   19.4856 C   0  0  0  0  0  0  0  0  0  0  0  0
   16.0015    2.7773   20.3074 O   0  0  0  0  0  0  0  0  0  0  0  0
   16.2195   -0.1116   21.3017 C   0  0  0  0  0  0  0  0  0  0  0  0
   16.8557   -1.1666   22.0126 O   0  0  0  0  0  0  0  0  0  0  0  0
   14.1083   -3.2160   17.5397 N   0  0  0  0  0  0  0  0  0  0  0  0
   14.9067   -2.9660   16.3542 C   0  0  0  0  0  0  0  0  0  0  0  0
   14.3918   -1.9918   15.2411 C   0  0  0  0  0  0  0  0  0  0  0  0
   15.0262   -0.5948   15.3059 C   0  0  0  0  0  0  0  0  0  0  0  0
   14.8454    0.1531   13.9884 C   0  0  0  0  0  0  0  0  0  0  0  0
   13.3904    0.2505   13.5686 C   0  0  0  0  0  0  0  0  0  0  0  0
   12.7441   -1.1127   13.5537 C   0  0  0  0  0  0  0  0  0  0  0  0
   12.8727   -1.8565   14.9083 C   0  0  0  0  0  0  0  0  0  0  0  0
   12.1608   -3.1799   14.7456 C   0  0  0  0  0  0  0  0  0  0  0  0
   10.8310   -3.0086   15.4066 C   0  0  0  0  0  0  0  0  0  0  0  0
   10.6331   -1.5824   15.6746 N   0  0  0  0  0  0  0  0  0  0  0  0
   12.0075   -1.1615   15.9648 C   0  0  0  0  0  0  0  0  0  0  0  0
   15.3755   -0.5938   18.0707 H   0  0  0  0  0  0  0  0  0  0  0  0
   13.6467   -0.5928   17.8159 H   0  0  0  0  0  0  0  0  0  0  0  0
   14.1975   -0.3749   19.3961 H   0  0  0  0  0  0  0  0  0  0  0  0
   13.5818   -2.6554   19.4040 H   0  0  0  0  0  0  0  0  0  0  0  0
   15.5110   -2.5370   20.6162 H   0  0  0  0  0  0  0  0  0  0  0  0
   15.6170   -3.9543   19.6657 H   0  0  0  0  0  0  0  0  0  0  0  0
   18.6745   -1.9115   18.2296 H   0  0  0  0  0  0  0  0  0  0  0  0
   18.8770    0.1079   19.0671 H   0  0  0  0  0  0  0  0  0  0  0  0
   17.8041    1.9163   21.9178 H   0  0  0  0  0  0  0  0  0  0  0  0
   18.8824    0.5420   21.6500 H   0  0  0  0  0  0  0  0  0  0  0  0
   18.8908    1.8996   20.5256 H   0  0  0  0  0  0  0  0  0  0  0  0
   17.0795    2.0994   18.7173 H   0  0  0  0  0  0  0  0  0  0  0  0
   15.5298    1.3174   18.9727 H   0  0  0  0  0  0  0  0  0  0  0  0
   15.4836    3.3830   19.7481 H   0  0  0  0  0  0  0  0  0  0  0  0
   15.8774    0.6123   22.0513 H   0  0  0  0  0  0  0  0  0  0  0  0
   15.3153   -0.5086   20.8729 H   0  0  0  0  0  0  0  0  0  0  0  0
   17.3274   -1.7006   21.3460 H   0  0  0  0  0  0  0  0  0  0  0  0
   14.1975   -4.1968   17.7994 H   0  0  0  0  0  0  0  0  0  0  0  0
   14.9928   -3.9454   15.8643 H   0  0  0  0  0  0  0  0  0  0  0  0
   15.9440   -2.7237   16.6078 H   0  0  0  0  0  0  0  0  0  0  0  0
   14.8387   -2.4363   14.3365 H   0  0  0  0  0  0  0  0  0  0  0  0
   16.0985   -0.6718   15.5203 H   0  0  0  0  0  0  0  0  0  0  0  0
   14.5847    0.0224   16.0876 H   0  0  0  0  0  0  0  0  0  0  0  0
   15.2679    1.1606   14.0791 H   0  0  0  0  0  0  0  0  0  0  0  0
   15.4190   -0.3538   13.2019 H   0  0  0  0  0  0  0  0  0  0  0  0
   12.8542    0.9356   14.2335 H   0  0  0  0  0  0  0  0  0  0  0  0
   13.3328    0.6936   12.5672 H   0  0  0  0  0  0  0  0  0  0  0  0
   11.6989   -0.9889   13.2644 H   0  0  0  0  0  0  0  0  0  0  0  0
   13.2155   -1.7140   12.7645 H   0  0  0  0  0  0  0  0  0  0  0  0
   12.0199   -3.4589   13.6972 H   0  0  0  0  0  0  0  0  0  0  0  0
   12.6829   -3.9687   15.2861 H   0  0  0  0  0  0  0  0  0  0  0  0
   10.0107   -3.4110   14.8259 H   0  0  0  0  0  0  0  0  0  0  0  0
   10.9098   -3.5712   16.3373 H   0  0  0  0  0  0  0  0  0  0  0  0
   10.3142   -1.1599   14.7943 H   0  0  0  0  0  0  0  0  0  0  0  0
   12.0874   -0.0731   15.9893 H   0  0  0  0  0  0  0  0  0  0  0  0
   12.2268   -1.5415   16.9560 H   0  0  0  0  0  0  0  0  0  0  0  0
  1  2  1  0
  2  3  1  0
  3  4  1  0
  4  5  2  3
  5  6  1  0
  6  7  1  0
  7  8  1  0
  7  9  1  0
  9 10  1  0
  7 11  1  0
 11 12  1  0
  2 13  1  0
 13 14  1  0
 14 15  1  0
 15 16  1  0
 16 17  1  0
 17 18  1  0
 18 19  1  0
 19 20  1  0
 20 21  1  0
 21 22  1  0
 22 23  1  0
 23 24  1  0
 20 15  1  0
 24 20  1  0
  1 25  1  0
  1 26  1  0
  1 27  1  0
  2 28  1  0
  3 29  1  0
  3 30  1  0
  5 31  1  0
  6 32  1  0
  8 33  1  0
  8 34  1  0
  8 35  1  0
  9 36  1  0
  9 37  1  0
 10 38  1  0
 11 39  1  0
 11 40  1  0
 12 41  1  0
 13 42  1  0
 14 43  1  0
 14 44  1  0
 15 45  1  0
 16 46  1  0
 16 47  1  0
 17 48  1  0
 17 49  1  0
 18 50  1  0
 18 51  1  0
 19 52  1  0
 19 53  1  0
 21 54  1  0
 21 55  1  0
 22 56  1  0
 22 57  1  0
 23 58  1  0
 24 59  1  0
 24 60  1  0
M  END
>  <Energy>  (433) 
141.06644308804454

>  <compound_id>  (433) 
3429

>  <target_id>  (433) 
1

>  <reference_id>  (433) 
117

>  <inspiration_ids>  (433) 
[117, 20]

>  <energy_score>  (433) 
-42.21334289162212

>  <distance_score>  (433) 
2.504873964436037

>  <path>  (433) 
/opt/xchem-fragalysis-2/maxwin/BulkDock/SCRATCH/505734/C3429-P117/C3429-P117.minimised.mol

>  <scratch_subdir>  (433) 
/opt/xchem-fragalysis-2/maxwin/BulkDock/SCRATCH/505734/C3429-P117

>  <fragmenstein_runtime>  (433) 
6.083147048950195

>  <fragmenstein_outcome>  (433) 
too moved

>  <fragmenstein_mode>  (433) 
expansion

>  <fragmenstein_error>  (433) 


$$$$
C3429-P20
     RDKit          3D

 60 61  0  0  0  0  0  0  0  0999 V2000
   19.0640   -3.7901   16.5290 C   0  0  0  0  0  0  0  0  0  0  0  0
   18.3782   -2.5082   16.0438 C   0  0  0  0  0  0  0  0  0  0  0  0
   19.0867   -1.2469   16.6522 C   0  0  0  0  0  0  0  0  0  0  0  0
   18.3055   -0.5187   17.6780 N   0  0  0  0  0  0  0  0  0  0  0  0
   17.9926   -1.1464   18.6585 C   0  0  0  0  0  0  0  0  0  0  0  0
   17.1523   -0.7228   19.9152 N   0  0  0  0  0  0  0  0  0  0  0  0
   16.6016    0.5622   20.2911 C   0  0  0  0  0  0  0  0  0  0  0  0
   17.5384    1.1126   21.3690 C   0  0  0  0  0  0  0  0  0  0  0  0
   16.5047    1.5683   19.1257 C   0  0  0  0  0  0  0  0  0  0  0  0
   15.9400    2.8106   19.5541 O   0  0  0  0  0  0  0  0  0  0  0  0
   15.1834    0.3337   20.8917 C   0  0  0  0  0  0  0  0  0  0  0  0
   15.1106   -0.8899   21.6401 O   0  0  0  0  0  0  0  0  0  0  0  0
   16.9402   -2.5100   16.3476 N   0  0  0  0  0  0  0  0  0  0  0  0
   16.1323   -3.4463   15.6053 C   0  0  0  0  0  0  0  0  0  0  0  0
   14.6592   -3.3875   16.0326 C   0  0  0  0  0  0  0  0  0  0  0  0
   13.8264   -2.4462   15.1187 C   0  0  0  0  0  0  0  0  0  0  0  0
   13.8699   -0.9857   15.4885 C   0  0  0  0  0  0  0  0  0  0  0  0
   13.4748   -0.8420   16.9340 C   0  0  0  0  0  0  0  0  0  0  0  0
   14.3871   -1.6555   17.8561 C   0  0  0  0  0  0  0  0  0  0  0  0
   14.4233   -3.1715   17.5404 C   0  0  0  0  0  0  0  0  0  0  0  0
   13.1104   -3.8471   17.9484 C   0  0  0  0  0  0  0  0  0  0  0  0
   13.3442   -4.2828   19.3832 C   0  0  0  0  0  0  0  0  0  0  0  0
   14.6786   -4.8520   19.2826 N   0  0  0  0  0  0  0  0  0  0  0  0
   15.4408   -3.8928   18.4762 C   0  0  0  0  0  0  0  0  0  0  0  0
   18.9126   -3.9559   17.5999 H   0  0  0  0  0  0  0  0  0  0  0  0
   18.6919   -4.6713   15.9966 H   0  0  0  0  0  0  0  0  0  0  0  0
   20.1432   -3.7421   16.3465 H   0  0  0  0  0  0  0  0  0  0  0  0
   18.5192   -2.4522   14.9562 H   0  0  0  0  0  0  0  0  0  0  0  0
   20.0823   -1.4879   17.0451 H   0  0  0  0  0  0  0  0  0  0  0  0
   19.2452   -0.5324   15.8347 H   0  0  0  0  0  0  0  0  0  0  0  0
   18.2528   -2.1991   18.8749 H   0  0  0  0  0  0  0  0  0  0  0  0
   17.0114   -1.5324   20.5171 H   0  0  0  0  0  0  0  0  0  0  0  0
   17.6294    0.4180   22.2129 H   0  0  0  0  0  0  0  0  0  0  0  0
   18.5483    1.2731   20.9728 H   0  0  0  0  0  0  0  0  0  0  0  0
   17.1815    2.0681   21.7687 H   0  0  0  0  0  0  0  0  0  0  0  0
   17.4967    1.7867   18.7161 H   0  0  0  0  0  0  0  0  0  0  0  0
   15.8823    1.1738   18.3154 H   0  0  0  0  0  0  0  0  0  0  0  0
   15.9756    3.4066   18.7853 H   0  0  0  0  0  0  0  0  0  0  0  0
   14.8915    1.1580   21.5517 H   0  0  0  0  0  0  0  0  0  0  0  0
   14.4382    0.2703   20.0946 H   0  0  0  0  0  0  0  0  0  0  0  0
   14.1659   -1.0340   21.8550 H   0  0  0  0  0  0  0  0  0  0  0  0
   16.6104   -1.5550   16.1993 H   0  0  0  0  0  0  0  0  0  0  0  0
   16.4918   -4.4689   15.7665 H   0  0  0  0  0  0  0  0  0  0  0  0
   16.2287   -3.2596   14.5297 H   0  0  0  0  0  0  0  0  0  0  0  0
   14.3057   -4.4032   15.8507 H   0  0  0  0  0  0  0  0  0  0  0  0
   12.7804   -2.7816   15.1430 H   0  0  0  0  0  0  0  0  0  0  0  0
   14.1488   -2.5178   14.0739 H   0  0  0  0  0  0  0  0  0  0  0  0
   14.8690   -0.5708   15.3183 H   0  0  0  0  0  0  0  0  0  0  0  0
   13.1803   -0.4180   14.8533 H   0  0  0  0  0  0  0  0  0  0  0  0
   13.5310    0.2142   17.2193 H   0  0  0  0  0  0  0  0  0  0  0  0
   12.4343   -1.1534   17.0289 H   0  0  0  0  0  0  0  0  0  0  0  0
   14.1158   -1.5034   18.8999 H   0  0  0  0  0  0  0  0  0  0  0  0
   15.3835   -1.2207   17.7876 H   0  0  0  0  0  0  0  0  0  0  0  0
   12.8869   -4.7245   17.3330 H   0  0  0  0  0  0  0  0  0  0  0  0
   12.2703   -3.1860   17.8000 H   0  0  0  0  0  0  0  0  0  0  0  0
   13.3325   -3.4431   20.0848 H   0  0  0  0  0  0  0  0  0  0  0  0
   12.6381   -5.0371   19.7301 H   0  0  0  0  0  0  0  0  0  0  0  0
   15.0959   -4.9377   20.2091 H   0  0  0  0  0  0  0  0  0  0  0  0
   15.9362   -3.1841   19.1459 H   0  0  0  0  0  0  0  0  0  0  0  0
   16.2148   -4.4599   17.9580 H   0  0  0  0  0  0  0  0  0  0  0  0
  1  2  1  0
  2  3  1  0
  3  4  1  0
  4  5  2  3
  5  6  1  0
  6  7  1  0
  7  8  1  0
  7  9  1  0
  9 10  1  0
  7 11  1  0
 11 12  1  0
  2 13  1  0
 13 14  1  0
 14 15  1  0
 15 16  1  0
 16 17  1  0
 17 18  1  0
 18 19  1  0
 19 20  1  0
 20 21  1  0
 21 22  1  0
 22 23  1  0
 23 24  1  0
 20 15  1  0
 24 20  1  0
  1 25  1  0
  1 26  1  0
  1 27  1  0
  2 28  1  0
  3 29  1  0
  3 30  1  0
  5 31  1  0
  6 32  1  0
  8 33  1  0
  8 34  1  0
  8 35  1  0
  9 36  1  0
  9 37  1  0
 10 38  1  0
 11 39  1  0
 11 40  1  0
 12 41  1  0
 13 42  1  0
 14 43  1  0
 14 44  1  0
 15 45  1  0
 16 46  1  0
 16 47  1  0
 17 48  1  0
 17 49  1  0
 18 50  1  0
 18 51  1  0
 19 52  1  0
 19 53  1  0
 21 54  1  0
 21 55  1  0
 22 56  1  0
 22 57  1  0
 23 58  1  0
 24 59  1  0
 24 60  1  0
M  END
>  <Energy>  (434) 
98.309005451037407

>  <compound_id>  (434) 
3429

>  <target_id>  (434) 
1

>  <reference_id>  (434) 
20

>  <inspiration_ids>  (434) 
[117, 20]

>  <energy_score>  (434) 
-84.97078052862932

>  <distance_score>  (434) 
2.789033725285595

>  <path>  (434) 
/opt/xchem-fragalysis-2/maxwin/BulkDock/SCRATCH/505734/C3429-P20/C3429-P20.minimised.mol

>  <scratch_subdir>  (434) 
/opt/xchem-fragalysis-2/maxwin/BulkDock/SCRATCH/505734/C3429-P20

>  <fragmenstein_runtime>  (434) 
10.818387746810913

>  <fragmenstein_outcome>  (434) 
too moved

>  <fragmenstein_mode>  (434) 
expansion

>  <fragmenstein_error>  (434) 


$$$$
C3083-P117
     RDKit          2D

  0  0  0  0  0  0  0  0  0  0999 V2000
M  END
>  <compound_id>  (435) 
3083

>  <target_id>  (435) 
1

>  <reference_id>  (435) 
117

>  <inspiration_ids>  (435) 
[117, 23]

>  <energy_score>  (435) 
nan

>  <distance_score>  (435) 
nan

>  <path>  (435) 
/opt/xchem-fragalysis-2/maxwin/BulkDock/SCRATCH/505734/C3083-P117/C3083-P117.minimised.mol

>  <scratch_subdir>  (435) 
/opt/xchem-fragalysis-2/maxwin/BulkDock/SCRATCH/505734/C3083-P117

>  <fragmenstein_runtime>  (435) 
0.7988409996032715

>  <fragmenstein_outcome>  (435) 
too distant

>  <fragmenstein_mode>  (435) 
expansion

>  <fragmenstein_error>  (435) 
DistanceError: hit0+hit1

$$$$
C3430-P117
     RDKit          3D

 46 46  0  0  0  0  0  0  0  0999 V2000
   14.4235   -3.7743   19.2221 C   0  0  0  0  0  0  0  0  0  0  0  0
   14.9115   -3.8427   17.7833 C   0  0  0  0  0  0  0  0  0  0  0  0
   15.6208   -2.5538   17.3245 C   0  0  0  0  0  0  0  0  0  0  0  0
   14.9309   -1.1939   17.4344 N   0  0  0  0  0  0  0  0  0  0  0  0
   15.9271   -0.1474   17.6489 C   0  0  0  0  0  0  0  0  0  0  0  0
   16.5099    0.5162   16.8762 O   0  0  0  0  0  0  0  0  0  0  0  0
   15.9083   -0.1090   19.0953 N   0  0  0  0  0  0  0  0  0  0  0  0
   16.5271    0.8203   20.0338 C   0  0  0  0  0  0  0  0  0  0  0  0
   18.0464    0.5978   20.0324 C   0  0  0  0  0  0  0  0  0  0  0  0
   15.9456    0.5357   21.4424 C   0  0  0  0  0  0  0  0  0  0  0  0
   16.0209   -0.8585   21.7665 O   0  0  0  0  0  0  0  0  0  0  0  0
   16.2042    2.2790   19.6305 C   0  0  0  0  0  0  0  0  0  0  0  0
   16.6902    3.2093   20.5954 O   0  0  0  0  0  0  0  0  0  0  0  0
   14.2497   -1.6730   16.1440 C   0  0  0  0  0  0  0  0  0  0  0  0
   12.7476   -1.8700   16.4773 C   0  0  0  0  0  0  0  0  0  0  0  0
   11.9273   -2.2398   15.2568 C   0  0  0  0  0  0  0  0  0  0  0  0
   10.6207   -2.2771   15.6175 F   0  0  0  0  0  0  0  0  0  0  0  0
   12.2685   -3.4988   14.9033 F   0  0  0  0  0  0  0  0  0  0  0  0
   12.0970   -1.3254   14.0546 C   0  0  0  0  0  0  0  0  0  0  0  0
   13.5453   -0.9444   13.7977 C   0  0  0  0  0  0  0  0  0  0  0  0
   14.0914   -0.5012   15.1318 C   0  0  0  0  0  0  0  0  0  0  0  0
   14.1477    0.6937   15.4049 O   0  0  0  0  0  0  0  0  0  0  0  0
   15.2562   -3.5948   19.9098 H   0  0  0  0  0  0  0  0  0  0  0  0
   13.6919   -2.9772   19.3612 H   0  0  0  0  0  0  0  0  0  0  0  0
   13.9508   -4.7199   19.5054 H   0  0  0  0  0  0  0  0  0  0  0  0
   14.0951   -4.1327   17.1170 H   0  0  0  0  0  0  0  0  0  0  0  0
   15.6425   -4.6586   17.7174 H   0  0  0  0  0  0  0  0  0  0  0  0
   16.4360   -2.4671   18.0646 H   0  0  0  0  0  0  0  0  0  0  0  0
   16.2473   -2.6709   16.4197 H   0  0  0  0  0  0  0  0  0  0  0  0
   15.2265   -0.7776   19.4363 H   0  0  0  0  0  0  0  0  0  0  0  0
   18.5435    1.2157   20.7879 H   0  0  0  0  0  0  0  0  0  0  0  0
   18.4810    0.8478   19.0577 H   0  0  0  0  0  0  0  0  0  0  0  0
   18.3000   -0.4491   20.2332 H   0  0  0  0  0  0  0  0  0  0  0  0
   16.4614    1.1015   22.2257 H   0  0  0  0  0  0  0  0  0  0  0  0
   14.8838    0.8047   21.4772 H   0  0  0  0  0  0  0  0  0  0  0  0
   16.9593   -1.0661   21.9126 H   0  0  0  0  0  0  0  0  0  0  0  0
   15.1209    2.4212   19.5394 H   0  0  0  0  0  0  0  0  0  0  0  0
   16.6552    2.5291   18.6639 H   0  0  0  0  0  0  0  0  0  0  0  0
   16.4843    4.0952   20.2468 H   0  0  0  0  0  0  0  0  0  0  0  0
   14.6423   -2.4976   15.5258 H   0  0  0  0  0  0  0  0  0  0  0  0
   12.3359   -0.9456   16.9022 H   0  0  0  0  0  0  0  0  0  0  0  0
   12.6025   -2.6384   17.2384 H   0  0  0  0  0  0  0  0  0  0  0  0
   11.4942   -0.4209   14.1999 H   0  0  0  0  0  0  0  0  0  0  0  0
   11.7204   -1.8382   13.1702 H   0  0  0  0  0  0  0  0  0  0  0  0
   14.1316   -1.7883   13.4210 H   0  0  0  0  0  0  0  0  0  0  0  0
   13.6240   -0.1319   13.0689 H   0  0  0  0  0  0  0  0  0  0  0  0
  1  2  1  0
  2  3  1  0
  3  4  1  0
  4  5  1  0
  5  6  2  0
  5  7  1  0
  7  8  1  0
  8  9  1  0
  8 10  1  0
 10 11  1  0
  8 12  1  0
 12 13  1  0
  4 14  1  0
 14 15  1  0
 15 16  1  0
 16 17  1  0
 16 18  1  0
 16 19  1  0
 19 20  1  0
 20 21  1  0
 21 22  2  0
 21 14  1  0
  1 23  1  0
  1 24  1  0
  1 25  1  0
  2 26  1  0
  2 27  1  0
  3 28  1  0
  3 29  1  0
  7 30  1  0
  9 31  1  0
  9 32  1  0
  9 33  1  0
 10 34  1  0
 10 35  1  0
 11 36  1  0
 12 37  1  0
 12 38  1  0
 13 39  1  0
 14 40  1  0
 15 41  1  0
 15 42  1  0
 19 43  1  0
 19 44  1  0
 20 45  1  0
 20 46  1  0
M  END
>  <Energy>  (436) 
70.51254053495137

>  <compound_id>  (436) 
3430

>  <target_id>  (436) 
1

>  <reference_id>  (436) 
117

>  <inspiration_ids>  (436) 
[117, 26]

>  <energy_score>  (436) 
43.26452460227901

>  <distance_score>  (436) 
1.494663941792572

>  <path>  (436) 
/opt/xchem-fragalysis-2/maxwin/BulkDock/SCRATCH/505734/C3430-P117/C3430-P117.minimised.mol

>  <scratch_subdir>  (436) 
/opt/xchem-fragalysis-2/maxwin/BulkDock/SCRATCH/505734/C3430-P117

>  <fragmenstein_runtime>  (436) 
4.603089809417725

>  <fragmenstein_outcome>  (436) 
too moved

>  <fragmenstein_mode>  (436) 
expansion

>  <fragmenstein_error>  (436) 


$$$$
C3430-P26
     RDKit          3D

 46 46  0  0  0  0  0  0  0  0999 V2000
   15.2514   -3.2790   19.3856 C   0  0  0  0  0  0  0  0  0  0  0  0
   14.8562   -3.3245   17.9192 C   0  0  0  0  0  0  0  0  0  0  0  0
   15.3859   -2.1568   17.0485 C   0  0  0  0  0  0  0  0  0  0  0  0
   14.6963   -0.8028   17.3213 N   0  0  0  0  0  0  0  0  0  0  0  0
   15.6943    0.1955   17.7193 C   0  0  0  0  0  0  0  0  0  0  0  0
   16.3114    0.9505   17.0677 O   0  0  0  0  0  0  0  0  0  0  0  0
   15.6201    0.0383   19.1532 N   0  0  0  0  0  0  0  0  0  0  0  0
   16.2094    0.8258   20.2329 C   0  0  0  0  0  0  0  0  0  0  0  0
   17.7347    0.6400   20.2129 C   0  0  0  0  0  0  0  0  0  0  0  0
   15.6277    0.3454   21.5858 C   0  0  0  0  0  0  0  0  0  0  0  0
   15.8422   -1.0544   21.7893 O   0  0  0  0  0  0  0  0  0  0  0  0
   15.8568    2.3205   20.0296 C   0  0  0  0  0  0  0  0  0  0  0  0
   16.3595    3.1304   21.0896 O   0  0  0  0  0  0  0  0  0  0  0  0
   14.0759   -1.0839   15.9697 C   0  0  0  0  0  0  0  0  0  0  0  0
   12.9624   -2.1385   15.7867 C   0  0  0  0  0  0  0  0  0  0  0  0
   12.2702   -1.9836   14.4343 C   0  0  0  0  0  0  0  0  0  0  0  0
   11.3284   -2.9464   14.3197 F   0  0  0  0  0  0  0  0  0  0  0  0
   13.1870   -2.2095   13.4569 F   0  0  0  0  0  0  0  0  0  0  0  0
   11.6668   -0.6093   14.2071 C   0  0  0  0  0  0  0  0  0  0  0  0
   12.7186    0.4619   14.3992 C   0  0  0  0  0  0  0  0  0  0  0  0
   13.2651    0.2457   15.7806 C   0  0  0  0  0  0  0  0  0  0  0  0
   12.9367    1.0140   16.6831 O   0  0  0  0  0  0  0  0  0  0  0  0
   16.3020   -3.0046   19.5169 H   0  0  0  0  0  0  0  0  0  0  0  0
   14.6207   -2.5786   19.9369 H   0  0  0  0  0  0  0  0  0  0  0  0
   15.1012   -4.2637   19.8413 H   0  0  0  0  0  0  0  0  0  0  0  0
   13.7687   -3.4209   17.8724 H   0  0  0  0  0  0  0  0  0  0  0  0
   15.2778   -4.2435   17.4981 H   0  0  0  0  0  0  0  0  0  0  0  0
   16.4264   -2.0103   17.3837 H   0  0  0  0  0  0  0  0  0  0  0  0
   15.5766   -2.5048   16.0167 H   0  0  0  0  0  0  0  0  0  0  0  0
   14.9233   -0.6589   19.3733 H   0  0  0  0  0  0  0  0  0  0  0  0
   18.2110    1.1388   21.0638 H   0  0  0  0  0  0  0  0  0  0  0  0
   18.1716    1.0533   19.2965 H   0  0  0  0  0  0  0  0  0  0  0  0
   18.0107   -0.4201   20.2449 H   0  0  0  0  0  0  0  0  0  0  0  0
   16.0651    0.8823   22.4345 H   0  0  0  0  0  0  0  0  0  0  0  0
   14.5438    0.5051   21.6118 H   0  0  0  0  0  0  0  0  0  0  0  0
   16.7895   -1.1745   21.9711 H   0  0  0  0  0  0  0  0  0  0  0  0
   14.7696    2.4553   19.9850 H   0  0  0  0  0  0  0  0  0  0  0  0
   16.2773    2.7002   19.0920 H   0  0  0  0  0  0  0  0  0  0  0  0
   16.1234    4.0481   20.8644 H   0  0  0  0  0  0  0  0  0  0  0  0
   14.8099   -1.0118   15.1470 H   0  0  0  0  0  0  0  0  0  0  0  0
   12.2196   -2.0669   16.5896 H   0  0  0  0  0  0  0  0  0  0  0  0
   13.3612   -3.1554   15.8109 H   0  0  0  0  0  0  0  0  0  0  0  0
   10.8211   -0.4582   14.8888 H   0  0  0  0  0  0  0  0  0  0  0  0
   11.2871   -0.5161   13.1913 H   0  0  0  0  0  0  0  0  0  0  0  0
   13.5295    0.3896   13.6674 H   0  0  0  0  0  0  0  0  0  0  0  0
   12.2833    1.4631   14.3217 H   0  0  0  0  0  0  0  0  0  0  0  0
  1  2  1  0
  2  3  1  0
  3  4  1  0
  4  5  1  0
  5  6  2  0
  5  7  1  0
  7  8  1  0
  8  9  1  0
  8 10  1  0
 10 11  1  0
  8 12  1  0
 12 13  1  0
  4 14  1  0
 14 15  1  0
 15 16  1  0
 16 17  1  0
 16 18  1  0
 16 19  1  0
 19 20  1  0
 20 21  1  0
 21 22  2  0
 21 14  1  0
  1 23  1  0
  1 24  1  0
  1 25  1  0
  2 26  1  0
  2 27  1  0
  3 28  1  0
  3 29  1  0
  7 30  1  0
  9 31  1  0
  9 32  1  0
  9 33  1  0
 10 34  1  0
 10 35  1  0
 11 36  1  0
 12 37  1  0
 12 38  1  0
 13 39  1  0
 14 40  1  0
 15 41  1  0
 15 42  1  0
 19 43  1  0
 19 44  1  0
 20 45  1  0
 20 46  1  0
M  END
>  <Energy>  (437) 
62.705565396818955

>  <compound_id>  (437) 
3430

>  <target_id>  (437) 
1

>  <reference_id>  (437) 
26

>  <inspiration_ids>  (437) 
[117, 26]

>  <energy_score>  (437) 
35.457549464146126

>  <distance_score>  (437) 
1.6619950803237606

>  <path>  (437) 
/opt/xchem-fragalysis-2/maxwin/BulkDock/SCRATCH/505734/C3430-P26/C3430-P26.minimised.mol

>  <scratch_subdir>  (437) 
/opt/xchem-fragalysis-2/maxwin/BulkDock/SCRATCH/505734/C3430-P26

>  <fragmenstein_runtime>  (437) 
4.755225896835327

>  <fragmenstein_outcome>  (437) 
too moved

>  <fragmenstein_mode>  (437) 
expansion

>  <fragmenstein_error>  (437) 


$$$$
C3431-P117
     RDKit          3D

 54 54  0  0  0  0  0  0  0  0999 V2000
   16.5891   -4.8343   19.1285 C   0  0  0  0  0  0  0  0  0  0  0  0
   15.1377   -4.6460   19.5055 C   0  0  0  0  0  0  0  0  0  0  0  0
   14.4391   -3.5134   18.7632 C   0  0  0  0  0  0  0  0  0  0  0  0
   14.2132   -3.6668   17.2375 C   0  0  0  0  0  0  0  0  0  0  0  0
   12.9860   -2.8041   16.7882 C   0  0  0  0  0  0  0  0  0  0  0  0
   12.3960   -2.9659   15.3925 C   0  0  0  0  0  0  0  0  0  0  0  0
   12.6970   -1.8479   14.3865 C   0  0  0  0  0  0  0  0  0  0  0  0
   13.9833   -1.0542   14.6819 C   0  0  0  0  0  0  0  0  0  0  0  0
   15.2832   -1.6882   14.0785 C   0  0  0  0  0  0  0  0  0  0  0  0
   16.4945   -0.9383   14.5010 N   0  0  0  0  0  0  0  0  0  0  0  0
   15.2834   -1.6676   12.5198 C   0  0  0  0  0  0  0  0  0  0  0  0
   14.6157   -2.7673   11.9342 O   0  0  0  0  0  0  0  0  0  0  0  0
   13.9689   -0.6497   16.1913 C   0  0  0  0  0  0  0  0  0  0  0  0
   15.2167   -0.6886   16.9097 N   0  0  0  0  0  0  0  0  0  0  0  0
   15.5106    0.4342   17.8267 C   0  0  0  0  0  0  0  0  0  0  0  0
   15.8540    1.6795   16.9951 C   0  0  0  0  0  0  0  0  0  0  0  0
   16.7490   -0.0219   18.6420 C   0  0  0  0  0  0  0  0  0  0  0  0
   16.9994    0.8310   19.7580 O   0  0  0  0  0  0  0  0  0  0  0  0
   14.3964    0.8537   18.8195 C   0  0  0  0  0  0  0  0  0  0  0  0
   14.1106   -0.1771   19.7556 O   0  0  0  0  0  0  0  0  0  0  0  0
   13.0883   -1.3873   17.0554 N   0  0  0  0  0  0  0  0  0  0  0  0
   17.1633   -3.9196   19.3076 H   0  0  0  0  0  0  0  0  0  0  0  0
   17.0366   -5.6375   19.7223 H   0  0  0  0  0  0  0  0  0  0  0  0
   16.6905   -5.0998   18.0716 H   0  0  0  0  0  0  0  0  0  0  0  0
   15.0897   -4.4332   20.5808 H   0  0  0  0  0  0  0  0  0  0  0  0
   14.5937   -5.5789   19.3573 H   0  0  0  0  0  0  0  0  0  0  0  0
   14.9886   -2.5896   18.9555 H   0  0  0  0  0  0  0  0  0  0  0  0
   13.4649   -3.3950   19.2536 H   0  0  0  0  0  0  0  0  0  0  0  0
   15.1212   -3.4118   16.6847 H   0  0  0  0  0  0  0  0  0  0  0  0
   13.9759   -4.7051   17.0047 H   0  0  0  0  0  0  0  0  0  0  0  0
   12.1935   -3.1780   17.4381 H   0  0  0  0  0  0  0  0  0  0  0  0
   12.7010   -3.9259   15.0247 H   0  0  0  0  0  0  0  0  0  0  0  0
   11.3013   -3.0332   15.4691 H   0  0  0  0  0  0  0  0  0  0  0  0
   11.8592   -1.1365   14.4306 H   0  0  0  0  0  0  0  0  0  0  0  0
   12.6712   -2.2430   13.3683 H   0  0  0  0  0  0  0  0  0  0  0  0
   13.8722   -0.1027   14.1365 H   0  0  0  0  0  0  0  0  0  0  0  0
   15.3805   -2.7170   14.4373 H   0  0  0  0  0  0  0  0  0  0  0  0
   17.3214   -1.4427   14.1726 H   0  0  0  0  0  0  0  0  0  0  0  0
   16.5145   -0.0357   14.0217 H   0  0  0  0  0  0  0  0  0  0  0  0
   16.3080   -1.6916   12.1287 H   0  0  0  0  0  0  0  0  0  0  0  0
   14.8251   -0.7473   12.1412 H   0  0  0  0  0  0  0  0  0  0  0  0
   15.1736   -3.5598   12.0716 H   0  0  0  0  0  0  0  0  0  0  0  0
   13.5776    0.3741   16.1812 H   0  0  0  0  0  0  0  0  0  0  0  0
   15.9724   -0.7680   16.2145 H   0  0  0  0  0  0  0  0  0  0  0  0
   16.6738    1.4822   16.2947 H   0  0  0  0  0  0  0  0  0  0  0  0
   16.1803    2.5062   17.6370 H   0  0  0  0  0  0  0  0  0  0  0  0
   15.0005    2.0433   16.4134 H   0  0  0  0  0  0  0  0  0  0  0  0
   17.6528   -0.0605   18.0217 H   0  0  0  0  0  0  0  0  0  0  0  0
   16.6048   -1.0266   19.0525 H   0  0  0  0  0  0  0  0  0  0  0  0
   17.4907    1.6032   19.4282 H   0  0  0  0  0  0  0  0  0  0  0  0
   14.6745    1.7503   19.3867 H   0  0  0  0  0  0  0  0  0  0  0  0
   13.4769    1.1148   18.2898 H   0  0  0  0  0  0  0  0  0  0  0  0
   14.8598   -0.2032   20.3819 H   0  0  0  0  0  0  0  0  0  0  0  0
   13.5150   -1.2734   17.9773 H   0  0  0  0  0  0  0  0  0  0  0  0
  1  2  1  0
  2  3  1  0
  3  4  1  0
  4  5  1  0
  5  6  1  0
  6  7  1  0
  7  8  1  0
  8  9  1  0
  9 10  1  0
  9 11  1  0
 11 12  1  0
  8 13  1  0
 13 14  1  0
 14 15  1  0
 15 16  1  0
 15 17  1  0
 17 18  1  0
 15 19  1  0
 19 20  1  0
 13 21  1  0
 21  5  1  0
  1 22  1  0
  1 23  1  0
  1 24  1  0
  2 25  1  0
  2 26  1  0
  3 27  1  0
  3 28  1  0
  4 29  1  0
  4 30  1  0
  5 31  1  0
  6 32  1  0
  6 33  1  0
  7 34  1  0
  7 35  1  0
  8 36  1  0
  9 37  1  0
 10 38  1  0
 10 39  1  0
 11 40  1  0
 11 41  1  0
 12 42  1  0
 13 43  1  0
 14 44  1  0
 16 45  1  0
 16 46  1  0
 16 47  1  0
 17 48  1  0
 17 49  1  0
 18 50  1  0
 19 51  1  0
 19 52  1  0
 20 53  1  0
 21 54  1  0
M  END
>  <Energy>  (438) 
53.430137447167702

>  <compound_id>  (438) 
3431

>  <target_id>  (438) 
1

>  <reference_id>  (438) 
117

>  <inspiration_ids>  (438) 
[117, 27]

>  <energy_score>  (438) 
-27.135109766178658

>  <distance_score>  (438) 
1.599581052130844

>  <path>  (438) 
/opt/xchem-fragalysis-2/maxwin/BulkDock/SCRATCH/505734/C3431-P117/C3431-P117.minimised.mol

>  <scratch_subdir>  (438) 
/opt/xchem-fragalysis-2/maxwin/BulkDock/SCRATCH/505734/C3431-P117

>  <fragmenstein_runtime>  (438) 
223.26919651031494

>  <fragmenstein_outcome>  (438) 
too moved

>  <fragmenstein_mode>  (438) 
expansion

>  <fragmenstein_error>  (438) 


$$$$
C3431-P27
     RDKit          3D

 54 54  0  0  0  0  0  0  0  0999 V2000
   15.3091   -4.8123   20.4170 C   0  0  0  0  0  0  0  0  0  0  0  0
   14.3775   -4.4010   19.2821 C   0  0  0  0  0  0  0  0  0  0  0  0
   15.1710   -4.1138   18.0131 C   0  0  0  0  0  0  0  0  0  0  0  0
   14.3715   -3.9194   16.7058 C   0  0  0  0  0  0  0  0  0  0  0  0
   13.0549   -3.1031   16.7127 C   0  0  0  0  0  0  0  0  0  0  0  0
   12.2270   -2.9505   15.4179 C   0  0  0  0  0  0  0  0  0  0  0  0
   12.5002   -1.7139   14.5486 C   0  0  0  0  0  0  0  0  0  0  0  0
   13.7866   -0.9440   14.8937 C   0  0  0  0  0  0  0  0  0  0  0  0
   15.0605   -1.4229   14.1187 C   0  0  0  0  0  0  0  0  0  0  0  0
   16.2457   -0.6189   14.4756 N   0  0  0  0  0  0  0  0  0  0  0  0
   14.9075   -1.3379   12.5779 C   0  0  0  0  0  0  0  0  0  0  0  0
   14.3474   -2.5250   12.0315 O   0  0  0  0  0  0  0  0  0  0  0  0
   13.8492   -0.7874   16.4461 C   0  0  0  0  0  0  0  0  0  0  0  0
   15.1577   -0.7553   17.0493 N   0  0  0  0  0  0  0  0  0  0  0  0
   15.4033    0.3036   18.0649 C   0  0  0  0  0  0  0  0  0  0  0  0
   15.2975    1.6943   17.4169 C   0  0  0  0  0  0  0  0  0  0  0  0
   16.8450    0.0736   18.5773 C   0  0  0  0  0  0  0  0  0  0  0  0
   17.1717    0.9982   19.6140 O   0  0  0  0  0  0  0  0  0  0  0  0
   14.4750    0.2454   19.3008 C   0  0  0  0  0  0  0  0  0  0  0  0
   14.5814   -1.0015   19.9848 O   0  0  0  0  0  0  0  0  0  0  0  0
   13.1544   -1.7657   17.2525 N   0  0  0  0  0  0  0  0  0  0  0  0
   14.7313   -5.0056   21.3263 H   0  0  0  0  0  0  0  0  0  0  0  0
   15.8580   -5.7250   20.1640 H   0  0  0  0  0  0  0  0  0  0  0  0
   16.0334   -4.0212   20.6359 H   0  0  0  0  0  0  0  0  0  0  0  0
   13.8069   -3.5171   19.5830 H   0  0  0  0  0  0  0  0  0  0  0  0
   13.6527   -5.1991   19.1026 H   0  0  0  0  0  0  0  0  0  0  0  0
   15.8640   -4.9474   17.8345 H   0  0  0  0  0  0  0  0  0  0  0  0
   15.8279   -3.2598   18.1963 H   0  0  0  0  0  0  0  0  0  0  0  0
   15.0728   -3.5320   15.9712 H   0  0  0  0  0  0  0  0  0  0  0  0
   14.0967   -4.9141   16.3516 H   0  0  0  0  0  0  0  0  0  0  0  0
   12.4098   -3.6692   17.3944 H   0  0  0  0  0  0  0  0  0  0  0  0
   12.2706   -3.8356   14.8071 H   0  0  0  0  0  0  0  0  0  0  0  0
   11.1666   -2.8949   15.7041 H   0  0  0  0  0  0  0  0  0  0  0  0
   11.6587   -1.0217   14.7015 H   0  0  0  0  0  0  0  0  0  0  0  0
   12.4406   -1.9822   13.4910 H   0  0  0  0  0  0  0  0  0  0  0  0
   13.6229    0.0782   14.5137 H   0  0  0  0  0  0  0  0  0  0  0  0
   15.2824   -2.4586   14.3654 H   0  0  0  0  0  0  0  0  0  0  0  0
   16.0556    0.3660   14.2957 H   0  0  0  0  0  0  0  0  0  0  0  0
   16.3209   -0.6697   15.5037 H   0  0  0  0  0  0  0  0  0  0  0  0
   15.8801   -1.2065   12.0889 H   0  0  0  0  0  0  0  0  0  0  0  0
   14.2815   -0.4888   12.2838 H   0  0  0  0  0  0  0  0  0  0  0  0
   14.9869   -3.2469   12.1973 H   0  0  0  0  0  0  0  0  0  0  0  0
   13.3230    0.1543   16.6374 H   0  0  0  0  0  0  0  0  0  0  0  0
   15.1490   -1.6079   17.6102 H   0  0  0  0  0  0  0  0  0  0  0  0
   15.9317    1.7668   16.5260 H   0  0  0  0  0  0  0  0  0  0  0  0
   15.6265    2.4782   18.1091 H   0  0  0  0  0  0  0  0  0  0  0  0
   14.2750    1.9508   17.1233 H   0  0  0  0  0  0  0  0  0  0  0  0
   17.5738    0.2058   17.7688 H   0  0  0  0  0  0  0  0  0  0  0  0
   16.9725   -0.9388   18.9792 H   0  0  0  0  0  0  0  0  0  0  0  0
   18.0222    0.7048   19.9842 H   0  0  0  0  0  0  0  0  0  0  0  0
   14.6984    1.0455   20.0151 H   0  0  0  0  0  0  0  0  0  0  0  0
   13.4514    0.3825   18.9730 H   0  0  0  0  0  0  0  0  0  0  0  0
   13.9912   -0.9635   20.7607 H   0  0  0  0  0  0  0  0  0  0  0  0
   12.1985   -1.4285   17.3361 H   0  0  0  0  0  0  0  0  0  0  0  0
  1  2  1  0
  2  3  1  0
  3  4  1  0
  4  5  1  0
  5  6  1  0
  6  7  1  0
  7  8  1  0
  8  9  1  0
  9 10  1  0
  9 11  1  0
 11 12  1  0
  8 13  1  0
 13 14  1  0
 14 15  1  0
 15 16  1  0
 15 17  1  0
 17 18  1  0
 15 19  1  0
 19 20  1  0
 13 21  1  0
 21  5  1  0
  1 22  1  0
  1 23  1  0
  1 24  1  0
  2 25  1  0
  2 26  1  0
  3 27  1  0
  3 28  1  0
  4 29  1  0
  4 30  1  0
  5 31  1  0
  6 32  1  0
  6 33  1  0
  7 34  1  0
  7 35  1  0
  8 36  1  0
  9 37  1  0
 10 38  1  0
 10 39  1  0
 11 40  1  0
 11 41  1  0
 12 42  1  0
 13 43  1  0
 14 44  1  0
 16 45  1  0
 16 46  1  0
 16 47  1  0
 17 48  1  0
 17 49  1  0
 18 50  1  0
 19 51  1  0
 19 52  1  0
 20 53  1  0
 21 54  1  0
M  END
>  <Energy>  (439) 
52.73945382805767

>  <compound_id>  (439) 
3431

>  <target_id>  (439) 
1

>  <reference_id>  (439) 
27

>  <inspiration_ids>  (439) 
[117, 27]

>  <energy_score>  (439) 
-27.825793385288705

>  <distance_score>  (439) 
1.549748174543132

>  <path>  (439) 
/opt/xchem-fragalysis-2/maxwin/BulkDock/SCRATCH/505734/C3431-P27/C3431-P27.minimised.mol

>  <scratch_subdir>  (439) 
/opt/xchem-fragalysis-2/maxwin/BulkDock/SCRATCH/505734/C3431-P27

>  <fragmenstein_runtime>  (439) 
135.57417798042297

>  <fragmenstein_outcome>  (439) 
too moved

>  <fragmenstein_mode>  (439) 
expansion

>  <fragmenstein_error>  (439) 


$$$$
C3337-P117
     RDKit          3D

 45 45  0  0  0  0  0  0  0  0999 V2000
   17.5473    0.4414   20.3877 C   0  0  0  0  0  0  0  0  0  0  0  0
   16.1021    0.7863   20.0031 C   0  0  0  0  0  0  0  0  0  0  0  0
   15.1630    0.5858   21.2202 C   0  0  0  0  0  0  0  0  0  0  0  0
   15.0578   -0.8117   21.5467 O   0  0  0  0  0  0  0  0  0  0  0  0
   16.0059    2.2414   19.4936 C   0  0  0  0  0  0  0  0  0  0  0  0
   16.4927    3.1717   20.4541 O   0  0  0  0  0  0  0  0  0  0  0  0
   15.6564   -0.1589   18.9904 N   0  0  0  0  0  0  0  0  0  0  0  0
   14.7961    0.0600   17.7278 C   0  0  0  0  0  0  0  0  0  0  0  0
   14.3865    1.0204   17.2736 O   0  0  0  0  0  0  0  0  0  0  0  0
   14.5688   -1.4173   17.3190 N   0  0  0  0  0  0  0  0  0  0  0  0
   13.7389   -1.9627   16.3554 C   0  0  0  0  0  0  0  0  0  0  0  0
   13.1339   -3.1668   16.7215 C   0  0  0  0  0  0  0  0  0  0  0  0
   12.0289   -3.6178   16.0212 C   0  0  0  0  0  0  0  0  0  0  0  0
   11.5357   -2.8784   14.9555 C   0  0  0  0  0  0  0  0  0  0  0  0
   12.2020   -1.7339   14.5296 C   0  0  0  0  0  0  0  0  0  0  0  0
   13.3580   -1.2884   15.1879 C   0  0  0  0  0  0  0  0  0  0  0  0
   14.1939   -0.1848   14.5689 C   0  0  0  0  0  0  0  0  0  0  0  0
   13.4148    1.0156   14.5947 O   0  0  0  0  0  0  0  0  0  0  0  0
   14.6092   -0.4817   13.1295 C   0  0  0  0  0  0  0  0  0  0  0  0
   16.1401   -1.3920   13.0910 S   0  0  0  0  0  0  0  0  0  0  0  0
   16.1402   -2.0743   11.4537 C   0  0  0  0  0  0  0  0  0  0  0  0
   17.2287   -0.4345   13.1606 O   0  0  0  0  0  0  0  0  0  0  0  0
   16.0719   -2.4917   14.0312 O   0  0  0  0  0  0  0  0  0  0  0  0
   17.9112    1.0762   21.2027 H   0  0  0  0  0  0  0  0  0  0  0  0
   17.6390   -0.6013   20.7134 H   0  0  0  0  0  0  0  0  0  0  0  0
   18.2199    0.5709   19.5318 H   0  0  0  0  0  0  0  0  0  0  0  0
   14.1530    0.9397   20.9832 H   0  0  0  0  0  0  0  0  0  0  0  0
   15.5207    1.1218   22.1050 H   0  0  0  0  0  0  0  0  0  0  0  0
   14.2106   -0.9262   22.0209 H   0  0  0  0  0  0  0  0  0  0  0  0
   16.5925    2.3659   18.5760 H   0  0  0  0  0  0  0  0  0  0  0  0
   14.9680    2.5127   19.2723 H   0  0  0  0  0  0  0  0  0  0  0  0
   16.4092    4.0540   20.0505 H   0  0  0  0  0  0  0  0  0  0  0  0
   15.9127   -1.1286   19.0608 H   0  0  0  0  0  0  0  0  0  0  0  0
   15.0150   -2.0245   17.9838 H   0  0  0  0  0  0  0  0  0  0  0  0
   13.4480   -3.7116   17.6075 H   0  0  0  0  0  0  0  0  0  0  0  0
   11.5400   -4.5350   16.3290 H   0  0  0  0  0  0  0  0  0  0  0  0
   10.6477   -3.2069   14.4298 H   0  0  0  0  0  0  0  0  0  0  0  0
   11.8129   -1.1952   13.6672 H   0  0  0  0  0  0  0  0  0  0  0  0
   15.1043    0.0087   15.1424 H   0  0  0  0  0  0  0  0  0  0  0  0
   13.4671    1.3159   15.5287 H   0  0  0  0  0  0  0  0  0  0  0  0
   13.8659   -1.0646   12.5792 H   0  0  0  0  0  0  0  0  0  0  0  0
   14.7802    0.4438   12.5686 H   0  0  0  0  0  0  0  0  0  0  0  0
   17.0616   -2.6447   11.3203 H   0  0  0  0  0  0  0  0  0  0  0  0
   15.2752   -2.7310   11.3437 H   0  0  0  0  0  0  0  0  0  0  0  0
   16.0982   -1.2578   10.7305 H   0  0  0  0  0  0  0  0  0  0  0  0
  1  2  1  0
  2  3  1  0
  3  4  1  0
  2  5  1  0
  5  6  1  0
  2  7  1  0
  7  8  1  0
  8  9  2  0
  8 10  1  0
 10 11  1  0
 11 12  2  0
 12 13  1  0
 13 14  2  0
 14 15  1  0
 15 16  2  0
 16 17  1  0
 17 18  1  0
 17 19  1  0
 19 20  1  0
 20 21  1  0
 20 22  2  0
 20 23  2  0
 16 11  1  0
  1 24  1  0
  1 25  1  0
  1 26  1  0
  3 27  1  0
  3 28  1  0
  4 29  1  0
  5 30  1  0
  5 31  1  0
  6 32  1  0
  7 33  1  0
 10 34  1  0
 12 35  1  0
 13 36  1  0
 14 37  1  0
 15 38  1  0
 17 39  1  0
 18 40  1  0
 19 41  1  0
 19 42  1  0
 21 43  1  0
 21 44  1  0
 21 45  1  0
M  END
>  <Energy>  (440) 
16.091392684525456

>  <compound_id>  (440) 
3337

>  <target_id>  (440) 
1

>  <reference_id>  (440) 
117

>  <inspiration_ids>  (440) 
[117, 31]

>  <energy_score>  (440) 
-32.77796489802188

>  <distance_score>  (440) 
0.6579856937709725

>  <path>  (440) 
/opt/xchem-fragalysis-2/maxwin/BulkDock/SCRATCH/505734/C3337-P117/C3337-P117.minimised.mol

>  <scratch_subdir>  (440) 
/opt/xchem-fragalysis-2/maxwin/BulkDock/SCRATCH/505734/C3337-P117

>  <fragmenstein_runtime>  (440) 
2.534078359603882

>  <fragmenstein_outcome>  (440) 
acceptable

>  <fragmenstein_mode>  (440) 
expansion

>  <fragmenstein_error>  (440) 


$$$$
C3337-P31
     RDKit          3D

 45 45  0  0  0  0  0  0  0  0999 V2000
   17.9731   -1.1163   20.6746 C   0  0  0  0  0  0  0  0  0  0  0  0
   16.8005   -0.2666   20.2080 C   0  0  0  0  0  0  0  0  0  0  0  0
   15.6907   -0.1576   21.2859 C   0  0  0  0  0  0  0  0  0  0  0  0
   15.3684   -1.4132   21.8708 O   0  0  0  0  0  0  0  0  0  0  0  0
   17.3388    1.1772   19.9075 C   0  0  0  0  0  0  0  0  0  0  0  0
   16.3489    2.1569   19.5671 O   0  0  0  0  0  0  0  0  0  0  0  0
   16.2491   -0.8314   18.9762 N   0  0  0  0  0  0  0  0  0  0  0  0
   15.3175   -2.0675   18.7581 C   0  0  0  0  0  0  0  0  0  0  0  0
   14.9284   -2.8411   19.5061 O   0  0  0  0  0  0  0  0  0  0  0  0
   14.9923   -1.8757   17.2458 N   0  0  0  0  0  0  0  0  0  0  0  0
   14.0764   -2.5329   16.4306 C   0  0  0  0  0  0  0  0  0  0  0  0
   13.2194   -3.4731   16.9647 C   0  0  0  0  0  0  0  0  0  0  0  0
   12.0363   -3.7842   16.3077 C   0  0  0  0  0  0  0  0  0  0  0  0
   11.6377   -3.0912   15.1714 C   0  0  0  0  0  0  0  0  0  0  0  0
   12.4910   -2.1570   14.6118 C   0  0  0  0  0  0  0  0  0  0  0  0
   13.7499   -1.9085   15.1927 C   0  0  0  0  0  0  0  0  0  0  0  0
   14.6778   -0.9326   14.4882 C   0  0  0  0  0  0  0  0  0  0  0  0
   14.1140    0.3733   14.6066 O   0  0  0  0  0  0  0  0  0  0  0  0
   14.8435   -1.2957   13.0207 C   0  0  0  0  0  0  0  0  0  0  0  0
   16.5110   -0.9997   12.4961 S   0  0  0  0  0  0  0  0  0  0  0  0
   16.5524   -1.8191   10.9300 C   0  0  0  0  0  0  0  0  0  0  0  0
   16.6753    0.4195   12.2453 O   0  0  0  0  0  0  0  0  0  0  0  0
   17.4216   -1.7025   13.3794 O   0  0  0  0  0  0  0  0  0  0  0  0
   18.3995   -0.7322   21.6078 H   0  0  0  0  0  0  0  0  0  0  0  0
   17.6752   -2.1568   20.8467 H   0  0  0  0  0  0  0  0  0  0  0  0
   18.7718   -1.1371   19.9237 H   0  0  0  0  0  0  0  0  0  0  0  0
   14.7698    0.2741   20.8816 H   0  0  0  0  0  0  0  0  0  0  0  0
   16.0254    0.4879   22.1053 H   0  0  0  0  0  0  0  0  0  0  0  0
   14.9978   -1.9910   21.1711 H   0  0  0  0  0  0  0  0  0  0  0  0
   17.8696    1.5564   20.7893 H   0  0  0  0  0  0  0  0  0  0  0  0
   18.0554    1.1427   19.0781 H   0  0  0  0  0  0  0  0  0  0  0  0
   16.8371    3.0059   19.5481 H   0  0  0  0  0  0  0  0  0  0  0  0
   16.3291   -0.3107   18.1164 H   0  0  0  0  0  0  0  0  0  0  0  0
   15.4456   -1.0473   16.9053 H   0  0  0  0  0  0  0  0  0  0  0  0
   13.3842   -3.9047   17.9426 H   0  0  0  0  0  0  0  0  0  0  0  0
   11.4122   -4.5680   16.7197 H   0  0  0  0  0  0  0  0  0  0  0  0
   10.6855   -3.3090   14.6998 H   0  0  0  0  0  0  0  0  0  0  0  0
   12.1731   -1.6349   13.7114 H   0  0  0  0  0  0  0  0  0  0  0  0
   15.6548   -0.9092   14.9754 H   0  0  0  0  0  0  0  0  0  0  0  0
   14.1823    0.5925   15.5557 H   0  0  0  0  0  0  0  0  0  0  0  0
   14.6857   -2.3652   12.8464 H   0  0  0  0  0  0  0  0  0  0  0  0
   14.1851   -0.7184   12.3638 H   0  0  0  0  0  0  0  0  0  0  0  0
   17.5439   -1.6780   10.4948 H   0  0  0  0  0  0  0  0  0  0  0  0
   16.3617   -2.8823   11.0802 H   0  0  0  0  0  0  0  0  0  0  0  0
   15.7946   -1.3777   10.2800 H   0  0  0  0  0  0  0  0  0  0  0  0
  1  2  1  0
  2  3  1  0
  3  4  1  0
  2  5  1  0
  5  6  1  0
  2  7  1  0
  7  8  1  0
  8  9  2  0
  8 10  1  0
 10 11  1  0
 11 12  2  0
 12 13  1  0
 13 14  2  0
 14 15  1  0
 15 16  2  0
 16 17  1  0
 17 18  1  0
 17 19  1  0
 19 20  1  0
 20 21  1  0
 20 22  2  0
 20 23  2  0
 16 11  1  0
  1 24  1  0
  1 25  1  0
  1 26  1  0
  3 27  1  0
  3 28  1  0
  4 29  1  0
  5 30  1  0
  5 31  1  0
  6 32  1  0
  7 33  1  0
 10 34  1  0
 12 35  1  0
 13 36  1  0
 14 37  1  0
 15 38  1  0
 17 39  1  0
 18 40  1  0
 19 41  1  0
 19 42  1  0
 21 43  1  0
 21 44  1  0
 21 45  1  0
M  END
>  <Energy>  (441) 
18.990005963109883

>  <compound_id>  (441) 
3337

>  <target_id>  (441) 
1

>  <reference_id>  (441) 
31

>  <inspiration_ids>  (441) 
[117, 31]

>  <energy_score>  (441) 
-29.87935161943949

>  <distance_score>  (441) 
1.3146585930661079

>  <path>  (441) 
/opt/xchem-fragalysis-2/maxwin/BulkDock/SCRATCH/505734/C3337-P31/C3337-P31.minimised.mol

>  <scratch_subdir>  (441) 
/opt/xchem-fragalysis-2/maxwin/BulkDock/SCRATCH/505734/C3337-P31

>  <fragmenstein_runtime>  (441) 
2.780907154083252

>  <fragmenstein_outcome>  (441) 
too moved

>  <fragmenstein_mode>  (441) 
expansion

>  <fragmenstein_error>  (441) 


$$$$
C3433-P117
     RDKit          3D

 39 39  0  0  0  0  0  0  0  0999 V2000
   17.6612    0.5124   19.9628 C   0  0  0  0  0  0  0  0  0  0  0  0
   16.2107    0.9927   19.8423 C   0  0  0  0  0  0  0  0  0  0  0  0
   15.4068    0.5965   21.1178 C   0  0  0  0  0  0  0  0  0  0  0  0
   15.5614   -0.7718   21.4907 O   0  0  0  0  0  0  0  0  0  0  0  0
   16.1465    2.5274   19.6564 C   0  0  0  0  0  0  0  0  0  0  0  0
   16.7622    3.2329   20.7164 O   0  0  0  0  0  0  0  0  0  0  0  0
   15.6129    0.4109   18.6388 N   0  0  0  0  0  0  0  0  0  0  0  0
   14.8739   -0.9270   18.4375 C   0  0  0  0  0  0  0  0  0  0  0  0
   14.6985   -1.7854   19.1617 O   0  0  0  0  0  0  0  0  0  0  0  0
   14.3533   -0.7132   16.9910 N   0  0  0  0  0  0  0  0  0  0  0  0
   13.4646   -1.4663   16.2350 C   0  0  0  0  0  0  0  0  0  0  0  0
   13.0606   -2.7544   16.5932 C   0  0  0  0  0  0  0  0  0  0  0  0
   13.5914   -3.4017   17.6358 F   0  0  0  0  0  0  0  0  0  0  0  0
   12.0843   -3.4141   15.8665 C   0  0  0  0  0  0  0  0  0  0  0  0
   11.5434   -2.8102   14.7386 C   0  0  0  0  0  0  0  0  0  0  0  0
   11.9600   -1.5418   14.3461 C   0  0  0  0  0  0  0  0  0  0  0  0
   12.8941   -0.8582   15.1085 C   0  0  0  0  0  0  0  0  0  0  0  0
   13.2644    0.4110   14.7350 O   0  0  0  0  0  0  0  0  0  0  0  0
   12.2960    1.3821   15.1198 C   0  0  0  0  0  0  0  0  0  0  0  0
   11.2953    1.8660   14.0591 C   0  0  0  0  0  0  0  0  0  0  0  0
   11.1388    1.4139   12.9354 O   0  0  0  0  0  0  0  0  0  0  0  0
   10.5333    2.9036   14.5032 O   0  0  0  0  0  0  0  0  0  0  0  0
   17.7210   -0.5816   19.9905 H   0  0  0  0  0  0  0  0  0  0  0  0
   18.2552    0.8417   19.1023 H   0  0  0  0  0  0  0  0  0  0  0  0
   18.1387    0.8995   20.8692 H   0  0  0  0  0  0  0  0  0  0  0  0
   15.7438    1.1869   21.9763 H   0  0  0  0  0  0  0  0  0  0  0  0
   14.3367    0.7929   20.9846 H   0  0  0  0  0  0  0  0  0  0  0  0
   15.1613   -1.3278   20.7889 H   0  0  0  0  0  0  0  0  0  0  0  0
   15.1039    2.8598   19.5828 H   0  0  0  0  0  0  0  0  0  0  0  0
   16.6488    2.8199   18.7262 H   0  0  0  0  0  0  0  0  0  0  0  0
   16.6891    4.1842   20.5264 H   0  0  0  0  0  0  0  0  0  0  0  0
   15.5126    0.9780   17.8183 H   0  0  0  0  0  0  0  0  0  0  0  0
   14.6306    0.1924   16.6629 H   0  0  0  0  0  0  0  0  0  0  0  0
   11.7753   -4.4079   16.1762 H   0  0  0  0  0  0  0  0  0  0  0  0
   10.8115   -3.3408   14.1457 H   0  0  0  0  0  0  0  0  0  0  0  0
   11.5516   -1.0936   13.4467 H   0  0  0  0  0  0  0  0  0  0  0  0
   12.8719    2.2643   15.4238 H   0  0  0  0  0  0  0  0  0  0  0  0
   11.7220    1.0530   15.9962 H   0  0  0  0  0  0  0  0  0  0  0  0
   10.7705    3.2342   15.3925 H   0  0  0  0  0  0  0  0  0  0  0  0
  1  2  1  0
  2  3  1  0
  3  4  1  0
  2  5  1  0
  5  6  1  0
  2  7  1  0
  7  8  1  0
  8  9  2  0
  8 10  1  0
 10 11  1  0
 11 12  2  0
 12 13  1  0
 12 14  1  0
 14 15  2  0
 15 16  1  0
 16 17  2  0
 17 18  1  0
 18 19  1  0
 19 20  1  0
 20 21  2  0
 20 22  1  0
 17 11  1  0
  1 23  1  0
  1 24  1  0
  1 25  1  0
  3 26  1  0
  3 27  1  0
  4 28  1  0
  5 29  1  0
  5 30  1  0
  6 31  1  0
  7 32  1  0
 10 33  1  0
 14 34  1  0
 15 35  1  0
 16 36  1  0
 19 37  1  0
 19 38  1  0
 22 39  1  0
M  END
>  <Energy>  (442) 
55.555100501135009

>  <compound_id>  (442) 
3433

>  <target_id>  (442) 
1

>  <reference_id>  (442) 
117

>  <inspiration_ids>  (442) 
[117, 50]

>  <energy_score>  (442) 
-27.409998440193334

>  <distance_score>  (442) 
1.516486832954926

>  <path>  (442) 
/opt/xchem-fragalysis-2/maxwin/BulkDock/SCRATCH/505734/C3433-P117/C3433-P117.minimised.mol

>  <scratch_subdir>  (442) 
/opt/xchem-fragalysis-2/maxwin/BulkDock/SCRATCH/505734/C3433-P117

>  <fragmenstein_runtime>  (442) 
6.020977258682251

>  <fragmenstein_outcome>  (442) 
too moved

>  <fragmenstein_mode>  (442) 
expansion

>  <fragmenstein_error>  (442) 


$$$$
C3433-P50
     RDKit          3D

 39 39  0  0  0  0  0  0  0  0999 V2000
   17.5788    0.3763   19.7142 C   0  0  0  0  0  0  0  0  0  0  0  0
   16.1360    0.8917   19.6847 C   0  0  0  0  0  0  0  0  0  0  0  0
   15.3862    0.4550   20.9798 C   0  0  0  0  0  0  0  0  0  0  0  0
   15.5307   -0.9308   21.2850 O   0  0  0  0  0  0  0  0  0  0  0  0
   16.1000    2.4365   19.5794 C   0  0  0  0  0  0  0  0  0  0  0  0
   16.7899    3.0766   20.6362 O   0  0  0  0  0  0  0  0  0  0  0  0
   15.4596    0.3882   18.4842 N   0  0  0  0  0  0  0  0  0  0  0  0
   14.7246   -0.9462   18.2361 C   0  0  0  0  0  0  0  0  0  0  0  0
   14.6127   -1.8592   18.9053 O   0  0  0  0  0  0  0  0  0  0  0  0
   14.0980   -0.6359   16.8490 N   0  0  0  0  0  0  0  0  0  0  0  0
   13.1653   -1.3485   16.1025 C   0  0  0  0  0  0  0  0  0  0  0  0
   12.8246   -2.6749   16.3655 C   0  0  0  0  0  0  0  0  0  0  0  0
   13.5155   -3.4237   17.2326 F   0  0  0  0  0  0  0  0  0  0  0  0
   11.7483   -3.2649   15.7178 C   0  0  0  0  0  0  0  0  0  0  0  0
   11.0007   -2.5345   14.8024 C   0  0  0  0  0  0  0  0  0  0  0  0
   11.3500   -1.2209   14.5055 C   0  0  0  0  0  0  0  0  0  0  0  0
   12.4410   -0.6335   15.1368 C   0  0  0  0  0  0  0  0  0  0  0  0
   12.8358    0.6420   14.8129 O   0  0  0  0  0  0  0  0  0  0  0  0
   11.8801    1.6356   15.1657 C   0  0  0  0  0  0  0  0  0  0  0  0
   10.9817    2.1803   14.0480 C   0  0  0  0  0  0  0  0  0  0  0  0
   10.8457    1.7173   12.9250 O   0  0  0  0  0  0  0  0  0  0  0  0
   10.2631    3.2667   14.4382 O   0  0  0  0  0  0  0  0  0  0  0  0
   17.6145   -0.7186   19.6854 H   0  0  0  0  0  0  0  0  0  0  0  0
   18.1399    0.7356   18.8437 H   0  0  0  0  0  0  0  0  0  0  0  0
   18.1064    0.7078   20.6150 H   0  0  0  0  0  0  0  0  0  0  0  0
   15.7747    1.0007   21.8461 H   0  0  0  0  0  0  0  0  0  0  0  0
   14.3153    0.6754   20.9062 H   0  0  0  0  0  0  0  0  0  0  0  0
   15.1227   -1.4489   20.5598 H   0  0  0  0  0  0  0  0  0  0  0  0
   15.0631    2.7943   19.5798 H   0  0  0  0  0  0  0  0  0  0  0  0
   16.5577    2.7642   18.6380 H   0  0  0  0  0  0  0  0  0  0  0  0
   16.7143    4.0374   20.5043 H   0  0  0  0  0  0  0  0  0  0  0  0
   15.4312    0.9488   17.6521 H   0  0  0  0  0  0  0  0  0  0  0  0
   14.3393    0.2969   16.5705 H   0  0  0  0  0  0  0  0  0  0  0  0
   11.4922   -4.2929   15.9461 H   0  0  0  0  0  0  0  0  0  0  0  0
   10.1500   -2.9898   14.3067 H   0  0  0  0  0  0  0  0  0  0  0  0
   10.7662   -0.6816   13.7657 H   0  0  0  0  0  0  0  0  0  0  0  0
   12.4647    2.4855   15.5372 H   0  0  0  0  0  0  0  0  0  0  0  0
   11.2340    1.3015   15.9881 H   0  0  0  0  0  0  0  0  0  0  0  0
   10.4734    3.6029   15.3327 H   0  0  0  0  0  0  0  0  0  0  0  0
  1  2  1  0
  2  3  1  0
  3  4  1  0
  2  5  1  0
  5  6  1  0
  2  7  1  0
  7  8  1  0
  8  9  2  0
  8 10  1  0
 10 11  1  0
 11 12  2  0
 12 13  1  0
 12 14  1  0
 14 15  2  0
 15 16  1  0
 16 17  2  0
 17 18  1  0
 18 19  1  0
 19 20  1  0
 20 21  2  0
 20 22  1  0
 17 11  1  0
  1 23  1  0
  1 24  1  0
  1 25  1  0
  3 26  1  0
  3 27  1  0
  4 28  1  0
  5 29  1  0
  5 30  1  0
  6 31  1  0
  7 32  1  0
 10 33  1  0
 14 34  1  0
 15 35  1  0
 16 36  1  0
 19 37  1  0
 19 38  1  0
 22 39  1  0
M  END
>  <Energy>  (443) 
55.378604941572277

>  <compound_id>  (443) 
3433

>  <target_id>  (443) 
1

>  <reference_id>  (443) 
50

>  <inspiration_ids>  (443) 
[117, 50]

>  <energy_score>  (443) 
-27.586493999756158

>  <distance_score>  (443) 
1.583062952307348

>  <path>  (443) 
/opt/xchem-fragalysis-2/maxwin/BulkDock/SCRATCH/505734/C3433-P50/C3433-P50.minimised.mol

>  <scratch_subdir>  (443) 
/opt/xchem-fragalysis-2/maxwin/BulkDock/SCRATCH/505734/C3433-P50

>  <fragmenstein_runtime>  (443) 
5.970067501068115

>  <fragmenstein_outcome>  (443) 
too moved

>  <fragmenstein_mode>  (443) 
expansion

>  <fragmenstein_error>  (443) 


$$$$
C3434-P117
     RDKit          3D

 49 50  0  0  0  0  0  0  0  0999 V2000
   17.5826    0.0051   20.4009 C   0  0  0  0  0  0  0  0  0  0  0  0
   16.1645    0.4548   20.0421 C   0  0  0  0  0  0  0  0  0  0  0  0
   15.1792    0.1867   21.2069 C   0  0  0  0  0  0  0  0  0  0  0  0
   15.0556   -1.2171   21.4749 O   0  0  0  0  0  0  0  0  0  0  0  0
   16.1448    1.9661   19.6815 C   0  0  0  0  0  0  0  0  0  0  0  0
   16.7233    2.7843   20.6928 O   0  0  0  0  0  0  0  0  0  0  0  0
   15.7103   -0.3060   18.8970 N   0  0  0  0  0  0  0  0  0  0  0  0
   14.6196    0.0131   17.8463 C   0  0  0  0  0  0  0  0  0  0  0  0
   13.9707    0.9755   17.6963 N   0  0  0  0  0  0  0  0  0  0  0  0
   13.0237    1.4450   16.8751 N   0  0  0  0  0  0  0  0  0  0  0  0
   13.1408    1.3846   15.4172 C   0  0  0  0  0  0  0  0  0  0  0  0
   14.4945    1.9050   14.9398 C   0  0  0  0  0  0  0  0  0  0  0  0
   15.0140    3.0128   15.8583 C   0  0  0  0  0  0  0  0  0  0  0  0
   15.8761    3.8702   15.1202 O   0  0  0  0  0  0  0  0  0  0  0  0
   13.8576    3.8038   16.4736 C   0  0  0  0  0  0  0  0  0  0  0  0
   12.8222    2.8950   17.1739 C   0  0  0  0  0  0  0  0  0  0  0  0
   14.5777   -1.3633   17.1038 N   0  0  0  0  0  0  0  0  0  0  0  0
   13.7096   -1.8354   16.1438 C   0  0  0  0  0  0  0  0  0  0  0  0
   13.9417   -1.6252   14.7879 C   0  0  0  0  0  0  0  0  0  0  0  0
   13.0075   -2.0358   13.8424 C   0  0  0  0  0  0  0  0  0  0  0  0
   11.9166   -2.7954   14.2410 C   0  0  0  0  0  0  0  0  0  0  0  0
   11.7853   -3.1747   15.5681 C   0  0  0  0  0  0  0  0  0  0  0  0
   12.6838   -2.7008   16.5146 C   0  0  0  0  0  0  0  0  0  0  0  0
   17.9515    0.5133   21.2982 H   0  0  0  0  0  0  0  0  0  0  0  0
   17.6255   -1.0738   20.5904 H   0  0  0  0  0  0  0  0  0  0  0  0
   18.2806    0.2155   19.5822 H   0  0  0  0  0  0  0  0  0  0  0  0
   15.5074    0.6788   22.1283 H   0  0  0  0  0  0  0  0  0  0  0  0
   14.1809    0.5635   20.9550 H   0  0  0  0  0  0  0  0  0  0  0  0
   14.1441   -1.3562   21.8046 H   0  0  0  0  0  0  0  0  0  0  0  0
   16.7076    2.1404   18.7574 H   0  0  0  0  0  0  0  0  0  0  0  0
   15.1221    2.3240   19.5291 H   0  0  0  0  0  0  0  0  0  0  0  0
   16.6500    3.7033   20.3797 H   0  0  0  0  0  0  0  0  0  0  0  0
   16.1257   -1.1958   18.6891 H   0  0  0  0  0  0  0  0  0  0  0  0
   12.3503    2.0004   14.9614 H   0  0  0  0  0  0  0  0  0  0  0  0
   12.9002    0.4080   15.0325 H   0  0  0  0  0  0  0  0  0  0  0  0
   15.2409    1.1039   14.9198 H   0  0  0  0  0  0  0  0  0  0  0  0
   14.4066    2.2616   13.9062 H   0  0  0  0  0  0  0  0  0  0  0  0
   15.6270    2.5878   16.6590 H   0  0  0  0  0  0  0  0  0  0  0  0
   16.6059    3.3216   14.7846 H   0  0  0  0  0  0  0  0  0  0  0  0
   13.3597    4.3830   15.6846 H   0  0  0  0  0  0  0  0  0  0  0  0
   14.2492    4.5453   17.1805 H   0  0  0  0  0  0  0  0  0  0  0  0
   12.8698    3.0603   18.2578 H   0  0  0  0  0  0  0  0  0  0  0  0
   11.8084    3.1943   16.8784 H   0  0  0  0  0  0  0  0  0  0  0  0
   15.3283   -1.9413   17.4267 H   0  0  0  0  0  0  0  0  0  0  0  0
   14.8166   -1.0715   14.4628 H   0  0  0  0  0  0  0  0  0  0  0  0
   13.1573   -1.7987   12.7947 H   0  0  0  0  0  0  0  0  0  0  0  0
   11.2137   -3.1580   13.5025 H   0  0  0  0  0  0  0  0  0  0  0  0
   10.9955   -3.8553   15.8535 H   0  0  0  0  0  0  0  0  0  0  0  0
   12.5802   -3.0010   17.5526 H   0  0  0  0  0  0  0  0  0  0  0  0
  1  2  1  0
  2  3  1  0
  3  4  1  0
  2  5  1  0
  5  6  1  0
  2  7  1  0
  7  8  1  0
  8  9  2  3
  9 10  1  0
 10 11  1  0
 11 12  1  0
 12 13  1  0
 13 14  1  0
 13 15  1  0
 15 16  1  0
  8 17  1  0
 17 18  1  0
 18 19  2  0
 19 20  1  0
 20 21  2  0
 21 22  1  0
 22 23  2  0
 16 10  1  0
 23 18  1  0
  1 24  1  0
  1 25  1  0
  1 26  1  0
  3 27  1  0
  3 28  1  0
  4 29  1  0
  5 30  1  0
  5 31  1  0
  6 32  1  0
  7 33  1  0
 11 34  1  0
 11 35  1  0
 12 36  1  0
 12 37  1  0
 13 38  1  0
 14 39  1  0
 15 40  1  0
 15 41  1  0
 16 42  1  0
 16 43  1  0
 17 44  1  0
 19 45  1  0
 20 46  1  0
 21 47  1  0
 22 48  1  0
 23 49  1  0
M  END
>  <Energy>  (444) 
96.374936512315259

>  <compound_id>  (444) 
3434

>  <target_id>  (444) 
1

>  <reference_id>  (444) 
117

>  <inspiration_ids>  (444) 
[117, 55]

>  <energy_score>  (444) 
-3.98496073616451

>  <distance_score>  (444) 
1.0191704523922946

>  <path>  (444) 
/opt/xchem-fragalysis-2/maxwin/BulkDock/SCRATCH/505734/C3434-P117/C3434-P117.minimised.mol

>  <scratch_subdir>  (444) 
/opt/xchem-fragalysis-2/maxwin/BulkDock/SCRATCH/505734/C3434-P117

>  <fragmenstein_runtime>  (444) 
4.056012153625488

>  <fragmenstein_outcome>  (444) 
too moved

>  <fragmenstein_mode>  (444) 
expansion

>  <fragmenstein_error>  (444) 


$$$$
C3434-P55
     RDKit          3D

 49 50  0  0  0  0  0  0  0  0999 V2000
   17.5661   -0.0124   20.3911 C   0  0  0  0  0  0  0  0  0  0  0  0
   16.1473    0.4391   20.0368 C   0  0  0  0  0  0  0  0  0  0  0  0
   15.1670    0.1805   21.2072 C   0  0  0  0  0  0  0  0  0  0  0  0
   15.0270   -1.2239   21.4666 O   0  0  0  0  0  0  0  0  0  0  0  0
   16.1312    1.9478   19.6668 C   0  0  0  0  0  0  0  0  0  0  0  0
   16.7095    2.7711   20.6749 O   0  0  0  0  0  0  0  0  0  0  0  0
   15.6856   -0.3327   18.9019 N   0  0  0  0  0  0  0  0  0  0  0  0
   14.6146   -0.0069   17.8333 C   0  0  0  0  0  0  0  0  0  0  0  0
   13.9925    0.9685   17.6572 N   0  0  0  0  0  0  0  0  0  0  0  0
   13.0671    1.4429   16.8151 N   0  0  0  0  0  0  0  0  0  0  0  0
   13.1966    1.3467   15.3606 C   0  0  0  0  0  0  0  0  0  0  0  0
   14.5647    1.8332   14.8860 C   0  0  0  0  0  0  0  0  0  0  0  0
   15.0895    2.9595   15.7794 C   0  0  0  0  0  0  0  0  0  0  0  0
   15.9696    3.7870   15.0289 O   0  0  0  0  0  0  0  0  0  0  0  0
   13.9363    3.7812   16.3542 C   0  0  0  0  0  0  0  0  0  0  0  0
   12.8955    2.9030   17.0813 C   0  0  0  0  0  0  0  0  0  0  0  0
   14.5628   -1.3878   17.1006 N   0  0  0  0  0  0  0  0  0  0  0  0
   13.7120   -1.8482   16.1192 C   0  0  0  0  0  0  0  0  0  0  0  0
   14.0001   -1.6744   14.7682 C   0  0  0  0  0  0  0  0  0  0  0  0
   13.0917   -2.0823   13.7959 C   0  0  0  0  0  0  0  0  0  0  0  0
   11.9627   -2.7982   14.1692 C   0  0  0  0  0  0  0  0  0  0  0  0
   11.7618   -3.1318   15.5001 C   0  0  0  0  0  0  0  0  0  0  0  0
   12.6411   -2.6665   16.4691 C   0  0  0  0  0  0  0  0  0  0  0  0
   17.9423    0.5027   21.2813 H   0  0  0  0  0  0  0  0  0  0  0  0
   17.6064   -1.0896   20.5903 H   0  0  0  0  0  0  0  0  0  0  0  0
   18.2597    0.1879   19.5661 H   0  0  0  0  0  0  0  0  0  0  0  0
   15.5073    0.6635   22.1290 H   0  0  0  0  0  0  0  0  0  0  0  0
   14.1717    0.5705   20.9629 H   0  0  0  0  0  0  0  0  0  0  0  0
   14.1198   -1.3502   21.8129 H   0  0  0  0  0  0  0  0  0  0  0  0
   16.6954    2.1156   18.7424 H   0  0  0  0  0  0  0  0  0  0  0  0
   15.1095    2.3070   19.5118 H   0  0  0  0  0  0  0  0  0  0  0  0
   16.6511    3.6866   20.3487 H   0  0  0  0  0  0  0  0  0  0  0  0
   15.9619   -1.2949   18.8173 H   0  0  0  0  0  0  0  0  0  0  0  0
   12.4214    1.9661   14.8837 H   0  0  0  0  0  0  0  0  0  0  0  0
   12.9420    0.3657   14.9958 H   0  0  0  0  0  0  0  0  0  0  0  0
   15.2997    1.0217   14.8990 H   0  0  0  0  0  0  0  0  0  0  0  0
   14.4951    2.1613   13.8416 H   0  0  0  0  0  0  0  0  0  0  0  0
   15.6865    2.5493   16.5999 H   0  0  0  0  0  0  0  0  0  0  0  0
   16.6964    3.2206   14.7173 H   0  0  0  0  0  0  0  0  0  0  0  0
   13.4461    4.3309   15.5396 H   0  0  0  0  0  0  0  0  0  0  0  0
   14.3263    4.5484   17.0339 H   0  0  0  0  0  0  0  0  0  0  0  0
   12.9673    3.0914   18.1594 H   0  0  0  0  0  0  0  0  0  0  0  0
   11.8845    3.2135   16.7890 H   0  0  0  0  0  0  0  0  0  0  0  0
   15.2906   -1.9800   17.4495 H   0  0  0  0  0  0  0  0  0  0  0  0
   14.9042   -1.1564   14.4649 H   0  0  0  0  0  0  0  0  0  0  0  0
   13.2915   -1.8808   12.7487 H   0  0  0  0  0  0  0  0  0  0  0  0
   11.2813   -3.1633   13.4121 H   0  0  0  0  0  0  0  0  0  0  0  0
   10.9336   -3.7729   15.7682 H   0  0  0  0  0  0  0  0  0  0  0  0
   12.4911   -2.9384   17.5085 H   0  0  0  0  0  0  0  0  0  0  0  0
  1  2  1  0
  2  3  1  0
  3  4  1  0
  2  5  1  0
  5  6  1  0
  2  7  1  0
  7  8  1  0
  8  9  2  3
  9 10  1  0
 10 11  1  0
 11 12  1  0
 12 13  1  0
 13 14  1  0
 13 15  1  0
 15 16  1  0
  8 17  1  0
 17 18  1  0
 18 19  2  0
 19 20  1  0
 20 21  2  0
 21 22  1  0
 22 23  2  0
 16 10  1  0
 23 18  1  0
  1 24  1  0
  1 25  1  0
  1 26  1  0
  3 27  1  0
  3 28  1  0
  4 29  1  0
  5 30  1  0
  5 31  1  0
  6 32  1  0
  7 33  1  0
 11 34  1  0
 11 35  1  0
 12 36  1  0
 12 37  1  0
 13 38  1  0
 14 39  1  0
 15 40  1  0
 15 41  1  0
 16 42  1  0
 16 43  1  0
 17 44  1  0
 19 45  1  0
 20 46  1  0
 21 47  1  0
 22 48  1  0
 23 49  1  0
M  END
>  <Energy>  (445) 
94.435793052256088

>  <compound_id>  (445) 
3434

>  <target_id>  (445) 
1

>  <reference_id>  (445) 
55

>  <inspiration_ids>  (445) 
[117, 55]

>  <energy_score>  (445) 
-5.92410419622172

>  <distance_score>  (445) 
1.0342772904132325

>  <path>  (445) 
/opt/xchem-fragalysis-2/maxwin/BulkDock/SCRATCH/505734/C3434-P55/C3434-P55.minimised.mol

>  <scratch_subdir>  (445) 
/opt/xchem-fragalysis-2/maxwin/BulkDock/SCRATCH/505734/C3434-P55

>  <fragmenstein_runtime>  (445) 
3.766706705093384

>  <fragmenstein_outcome>  (445) 
too moved

>  <fragmenstein_mode>  (445) 
expansion

>  <fragmenstein_error>  (445) 


$$$$
C3437-P117
     RDKit          3D

 52 53  0  0  0  0  0  0  0  0999 V2000
   13.0563    0.7126   15.5812 C   0  0  0  0  0  0  0  0  0  0  0  0
   12.7593   -0.7420   15.8090 C   0  0  0  0  0  0  0  0  0  0  0  0
   11.6978   -1.3028   15.0792 C   0  0  0  0  0  0  0  0  0  0  0  0
   11.3910   -2.6564   15.1859 C   0  0  0  0  0  0  0  0  0  0  0  0
   12.1481   -3.4768   16.0095 C   0  0  0  0  0  0  0  0  0  0  0  0
   13.2192   -2.9479   16.7170 C   0  0  0  0  0  0  0  0  0  0  0  0
   13.4960   -1.5756   16.6652 C   0  0  0  0  0  0  0  0  0  0  0  0
   14.4722   -1.1483   17.5615 N   0  0  0  0  0  0  0  0  0  0  0  0
   14.5940    0.0781   18.3137 C   0  0  0  0  0  0  0  0  0  0  0  0
   13.9386    1.0492   18.2943 O   0  0  0  0  0  0  0  0  0  0  0  0
   15.7866   -0.2532   19.1863 N   0  0  0  0  0  0  0  0  0  0  0  0
   16.9554    0.1381   18.5791 O   0  0  0  0  0  0  0  0  0  0  0  0
   15.3214   -0.9752   20.4915 C   0  0  0  0  0  0  0  0  0  0  0  0
   16.1837   -2.4481   21.0006 S   0  0  0  0  0  0  0  0  0  0  0  0
   16.4324   -3.2304   19.7996 O   0  0  0  0  0  0  0  0  0  0  0  0
   17.2707   -2.1401   21.9126 O   0  0  0  0  0  0  0  0  0  0  0  0
   14.9777   -3.3568   21.9444 C   0  0  0  0  0  0  0  0  0  0  0  0
   14.9591   -3.2379   23.3366 C   0  0  0  0  0  0  0  0  0  0  0  0
   14.0514   -3.9940   24.0764 C   0  0  0  0  0  0  0  0  0  0  0  0
   13.1754   -4.8638   23.4267 C   0  0  0  0  0  0  0  0  0  0  0  0
   13.2010   -4.9805   22.0358 C   0  0  0  0  0  0  0  0  0  0  0  0
   14.1099   -4.2344   21.2885 C   0  0  0  0  0  0  0  0  0  0  0  0
   16.6507    0.7457   20.3657 C   0  0  0  0  0  0  0  0  0  0  0  0
   18.1688    0.3697   20.6089 C   0  0  0  0  0  0  0  0  0  0  0  0
   16.0389    1.1220   21.8021 C   0  0  0  0  0  0  0  0  0  0  0  0
   16.0435    0.0612   22.7595 O   0  0  0  0  0  0  0  0  0  0  0  0
   16.6053    2.2445   19.7227 C   0  0  0  0  0  0  0  0  0  0  0  0
   17.3944    3.1874   20.4559 O   0  0  0  0  0  0  0  0  0  0  0  0
   12.7895    1.0059   14.5590 H   0  0  0  0  0  0  0  0  0  0  0  0
   12.4784    1.3343   16.2705 H   0  0  0  0  0  0  0  0  0  0  0  0
   14.1248    0.9238   15.6844 H   0  0  0  0  0  0  0  0  0  0  0  0
   11.1057   -0.6878   14.4009 H   0  0  0  0  0  0  0  0  0  0  0  0
   10.5653   -3.0659   14.6130 H   0  0  0  0  0  0  0  0  0  0  0  0
   11.8997   -4.5277   16.1184 H   0  0  0  0  0  0  0  0  0  0  0  0
   13.7882   -3.6107   17.3641 H   0  0  0  0  0  0  0  0  0  0  0  0
   15.1663   -1.8122   17.8934 H   0  0  0  0  0  0  0  0  0  0  0  0
   14.4891   -1.5311   20.0221 H   0  0  0  0  0  0  0  0  0  0  0  0
   14.6532   -0.4436   21.1638 H   0  0  0  0  0  0  0  0  0  0  0  0
   15.6423   -2.5682   23.8533 H   0  0  0  0  0  0  0  0  0  0  0  0
   14.0264   -3.9043   25.1594 H   0  0  0  0  0  0  0  0  0  0  0  0
   12.4643   -5.4462   24.0057 H   0  0  0  0  0  0  0  0  0  0  0  0
   12.5022   -5.6426   21.5309 H   0  0  0  0  0  0  0  0  0  0  0  0
   14.1249   -4.3458   20.2079 H   0  0  0  0  0  0  0  0  0  0  0  0
   18.8296    0.9325   19.9371 H   0  0  0  0  0  0  0  0  0  0  0  0
   18.4976    0.6065   21.6256 H   0  0  0  0  0  0  0  0  0  0  0  0
   18.3768   -0.6841   20.4157 H   0  0  0  0  0  0  0  0  0  0  0  0
   15.0093    1.4888   21.7052 H   0  0  0  0  0  0  0  0  0  0  0  0
   16.6050    1.9314   22.2759 H   0  0  0  0  0  0  0  0  0  0  0  0
   16.9724   -0.1837   22.9521 H   0  0  0  0  0  0  0  0  0  0  0  0
   15.5713    2.6082   19.7326 H   0  0  0  0  0  0  0  0  0  0  0  0
   16.9362    2.3043   18.6801 H   0  0  0  0  0  0  0  0  0  0  0  0
   18.2703    3.2020   20.0279 H   0  0  0  0  0  0  0  0  0  0  0  0
  1  2  1  0
  2  3  2  0
  3  4  1  0
  4  5  2  0
  5  6  1  0
  6  7  2  0
  7  8  1  0
  8  9  1  0
  9 10  2  0
  9 11  1  0
 11 12  1  0
 11 13  1  0
 13 14  1  0
 14 15  2  0
 14 16  2  0
 14 17  1  0
 17 18  2  0
 18 19  1  0
 19 20  2  0
 20 21  1  0
 21 22  2  0
 11 23  1  0
 23 24  1  0
 23 25  1  0
 25 26  1  0
 23 27  1  0
 27 28  1  0
  7  2  1  0
 22 17  1  0
  1 29  1  0
  1 30  1  0
  1 31  1  0
  3 32  1  0
  4 33  1  0
  5 34  1  0
  6 35  1  0
  8 36  1  0
 13 37  1  0
 13 38  1  0
 18 39  1  0
 19 40  1  0
 20 41  1  0
 21 42  1  0
 22 43  1  0
 24 44  1  0
 24 45  1  0
 24 46  1  0
 25 47  1  0
 25 48  1  0
 26 49  1  0
 27 50  1  0
 27 51  1  0
 28 52  1  0
M  CHG  2  11   1  12  -1
M  END
>  <Energy>  (446) 
245.06355343859303

>  <compound_id>  (446) 
3437

>  <target_id>  (446) 
1

>  <reference_id>  (446) 
117

>  <inspiration_ids>  (446) 
[117, 66]

>  <energy_score>  (446) 
59.52171908964192

>  <distance_score>  (446) 
0.9659360506657407

>  <path>  (446) 
/opt/xchem-fragalysis-2/maxwin/BulkDock/SCRATCH/505734/C3437-P117/C3437-P117.minimised.mol

>  <scratch_subdir>  (446) 
/opt/xchem-fragalysis-2/maxwin/BulkDock/SCRATCH/505734/C3437-P117

>  <fragmenstein_runtime>  (446) 
3.326321601867676

>  <fragmenstein_outcome>  (446) 
too contorted

>  <fragmenstein_mode>  (446) 
expansion

>  <fragmenstein_error>  (446) 


$$$$
C3437-P66
     RDKit          3D

 52 53  0  0  0  0  0  0  0  0999 V2000
   14.0932    0.2727   14.8139 C   0  0  0  0  0  0  0  0  0  0  0  0
   13.5308   -1.0562   15.2296 C   0  0  0  0  0  0  0  0  0  0  0  0
   12.3377   -1.4872   14.6258 C   0  0  0  0  0  0  0  0  0  0  0  0
   11.7320   -2.6796   15.0164 C   0  0  0  0  0  0  0  0  0  0  0  0
   12.3359   -3.4835   15.9773 C   0  0  0  0  0  0  0  0  0  0  0  0
   13.5534   -3.1081   16.5362 C   0  0  0  0  0  0  0  0  0  0  0  0
   14.1171   -1.8688   16.2130 C   0  0  0  0  0  0  0  0  0  0  0  0
   15.1191   -1.4353   17.0726 N   0  0  0  0  0  0  0  0  0  0  0  0
   15.2624   -0.2045   17.8103 C   0  0  0  0  0  0  0  0  0  0  0  0
   14.6058    0.7635   17.8030 O   0  0  0  0  0  0  0  0  0  0  0  0
   16.4559   -0.5321   18.6977 N   0  0  0  0  0  0  0  0  0  0  0  0
   17.6250   -0.1240   18.1081 O   0  0  0  0  0  0  0  0  0  0  0  0
   15.9864   -1.2722   19.9942 C   0  0  0  0  0  0  0  0  0  0  0  0
   16.9610   -2.6437   20.6060 S   0  0  0  0  0  0  0  0  0  0  0  0
   17.5460   -3.2820   19.4381 O   0  0  0  0  0  0  0  0  0  0  0  0
   17.7929   -2.2508   21.7285 O   0  0  0  0  0  0  0  0  0  0  0  0
   15.8004   -3.8218   21.2616 C   0  0  0  0  0  0  0  0  0  0  0  0
   14.8240   -3.4113   22.1671 C   0  0  0  0  0  0  0  0  0  0  0  0
   13.9144   -4.3496   22.6576 C   0  0  0  0  0  0  0  0  0  0  0  0
   13.9938   -5.6854   22.2614 C   0  0  0  0  0  0  0  0  0  0  0  0
   14.9879   -6.0936   21.3736 C   0  0  0  0  0  0  0  0  0  0  0  0
   15.8913   -5.1616   20.8656 C   0  0  0  0  0  0  0  0  0  0  0  0
   17.2990    0.4678   19.8985 C   0  0  0  0  0  0  0  0  0  0  0  0
   18.7773    0.0694   20.2493 C   0  0  0  0  0  0  0  0  0  0  0  0
   16.5569    0.9021   21.2643 C   0  0  0  0  0  0  0  0  0  0  0  0
   16.4050   -0.1168   22.2545 O   0  0  0  0  0  0  0  0  0  0  0  0
   17.3599    1.9651   19.2198 C   0  0  0  0  0  0  0  0  0  0  0  0
   17.8983    2.9645   20.0924 O   0  0  0  0  0  0  0  0  0  0  0  0
   13.9212    0.4442   13.7453 H   0  0  0  0  0  0  0  0  0  0  0  0
   13.6155    1.0812   15.3742 H   0  0  0  0  0  0  0  0  0  0  0  0
   15.1764    0.3152   14.9643 H   0  0  0  0  0  0  0  0  0  0  0  0
   11.8457   -0.8750   13.8709 H   0  0  0  0  0  0  0  0  0  0  0  0
   10.7910   -2.9763   14.5624 H   0  0  0  0  0  0  0  0  0  0  0  0
   11.8602   -4.4081   16.2946 H   0  0  0  0  0  0  0  0  0  0  0  0
   13.9904   -3.7430   17.3022 H   0  0  0  0  0  0  0  0  0  0  0  0
   15.8234   -2.0955   17.3881 H   0  0  0  0  0  0  0  0  0  0  0  0
   15.2437   -1.9187   19.4916 H   0  0  0  0  0  0  0  0  0  0  0  0
   15.2394   -0.7654   20.5998 H   0  0  0  0  0  0  0  0  0  0  0  0
   14.7478   -2.3801   22.5047 H   0  0  0  0  0  0  0  0  0  0  0  0
   13.1310   -4.0308   23.3426 H   0  0  0  0  0  0  0  0  0  0  0  0
   13.2801   -6.4073   22.6498 H   0  0  0  0  0  0  0  0  0  0  0  0
   15.0611   -7.1380   21.0785 H   0  0  0  0  0  0  0  0  0  0  0  0
   16.6674   -5.4940   20.1789 H   0  0  0  0  0  0  0  0  0  0  0  0
   19.4948    0.7144   19.7270 H   0  0  0  0  0  0  0  0  0  0  0  0
   18.9928    0.1784   21.3165 H   0  0  0  0  0  0  0  0  0  0  0  0
   19.0263   -0.9513   19.9509 H   0  0  0  0  0  0  0  0  0  0  0  0
   15.5585    1.2974   21.0387 H   0  0  0  0  0  0  0  0  0  0  0  0
   17.1022    1.6977   21.7812 H   0  0  0  0  0  0  0  0  0  0  0  0
   17.2954   -0.3961   22.5598 H   0  0  0  0  0  0  0  0  0  0  0  0
   16.3481    2.2824   18.9470 H   0  0  0  0  0  0  0  0  0  0  0  0
   17.9762    1.9992   18.3145 H   0  0  0  0  0  0  0  0  0  0  0  0
   18.0302    3.7617   19.5479 H   0  0  0  0  0  0  0  0  0  0  0  0
  1  2  1  0
  2  3  2  0
  3  4  1  0
  4  5  2  0
  5  6  1  0
  6  7  2  0
  7  8  1  0
  8  9  1  0
  9 10  2  0
  9 11  1  0
 11 12  1  0
 11 13  1  0
 13 14  1  0
 14 15  2  0
 14 16  2  0
 14 17  1  0
 17 18  2  0
 18 19  1  0
 19 20  2  0
 20 21  1  0
 21 22  2  0
 11 23  1  0
 23 24  1  0
 23 25  1  0
 25 26  1  0
 23 27  1  0
 27 28  1  0
  7  2  1  0
 22 17  1  0
  1 29  1  0
  1 30  1  0
  1 31  1  0
  3 32  1  0
  4 33  1  0
  5 34  1  0
  6 35  1  0
  8 36  1  0
 13 37  1  0
 13 38  1  0
 18 39  1  0
 19 40  1  0
 20 41  1  0
 21 42  1  0
 22 43  1  0
 24 44  1  0
 24 45  1  0
 24 46  1  0
 25 47  1  0
 25 48  1  0
 26 49  1  0
 27 50  1  0
 27 51  1  0
 28 52  1  0
M  CHG  2  11   1  12  -1
M  END
>  <Energy>  (447) 
249.84881282213269

>  <compound_id>  (447) 
3437

>  <target_id>  (447) 
1

>  <reference_id>  (447) 
66

>  <inspiration_ids>  (447) 
[117, 66]

>  <energy_score>  (447) 
64.30697847317896

>  <distance_score>  (447) 
1.1128575336126871

>  <path>  (447) 
/opt/xchem-fragalysis-2/maxwin/BulkDock/SCRATCH/505734/C3437-P66/C3437-P66.minimised.mol

>  <scratch_subdir>  (447) 
/opt/xchem-fragalysis-2/maxwin/BulkDock/SCRATCH/505734/C3437-P66

>  <fragmenstein_runtime>  (447) 
3.5268640518188477

>  <fragmenstein_outcome>  (447) 
too moved

>  <fragmenstein_mode>  (447) 
expansion

>  <fragmenstein_error>  (447) 


$$$$
C1420-P117
     RDKit          3D

 33 34  0  0  0  0  0  0  0  0999 V2000
   16.2018   -2.3929   16.1853 N   0  0  0  0  0  0  0  0  0  0  0  0
   15.0325   -2.3874   17.0778 C   0  0  0  0  0  0  0  0  0  0  0  0
   14.8061   -3.8228   17.6511 C   0  0  0  0  0  0  0  0  0  0  0  0
   15.9750   -4.5616   18.2425 C   0  0  0  0  0  0  0  0  0  0  0  0
   17.1488   -4.4768   17.9245 O   0  0  0  0  0  0  0  0  0  0  0  0
   15.5781   -5.4653   19.1630 O   0  0  0  0  0  0  0  0  0  0  0  0
   13.8048   -2.0101   16.1965 C   0  0  0  0  0  0  0  0  0  0  0  0
   13.8812   -0.8742   15.3632 C   0  0  0  0  0  0  0  0  0  0  0  0
   12.8009   -0.4739   14.5874 C   0  0  0  0  0  0  0  0  0  0  0  0
   11.6350   -1.2215   14.5993 C   0  0  0  0  0  0  0  0  0  0  0  0
   11.5495   -2.3858   15.3486 C   0  0  0  0  0  0  0  0  0  0  0  0
   12.6113   -2.7605   16.1667 C   0  0  0  0  0  0  0  0  0  0  0  0
   15.2789   -1.3801   18.2347 C   0  0  0  0  0  0  0  0  0  0  0  0
   16.3681   -1.5676   19.1106 C   0  0  0  0  0  0  0  0  0  0  0  0
   16.4959   -0.8429   20.2924 C   0  0  0  0  0  0  0  0  0  0  0  0
   15.5633    0.1242   20.5902 C   0  0  0  0  0  0  0  0  0  0  0  0
   15.5857    0.7012   21.7908 F   0  0  0  0  0  0  0  0  0  0  0  0
   14.5912    0.4716   19.6728 C   0  0  0  0  0  0  0  0  0  0  0  0
   14.4400   -0.2821   18.5045 C   0  0  0  0  0  0  0  0  0  0  0  0
   17.0004   -2.8236   16.6570 H   0  0  0  0  0  0  0  0  0  0  0  0
   16.0116   -2.9932   15.3826 H   0  0  0  0  0  0  0  0  0  0  0  0
   14.0229   -3.7825   18.4214 H   0  0  0  0  0  0  0  0  0  0  0  0
   14.4651   -4.4913   16.8499 H   0  0  0  0  0  0  0  0  0  0  0  0
   16.4032   -5.9147   19.4483 H   0  0  0  0  0  0  0  0  0  0  0  0
   14.7956   -0.2813   15.3379 H   0  0  0  0  0  0  0  0  0  0  0  0
   12.8700    0.4197   13.9731 H   0  0  0  0  0  0  0  0  0  0  0  0
   10.7953   -0.8772   14.0092 H   0  0  0  0  0  0  0  0  0  0  0  0
   10.6536   -2.9944   15.2852 H   0  0  0  0  0  0  0  0  0  0  0  0
   12.4705   -3.6584   16.7612 H   0  0  0  0  0  0  0  0  0  0  0  0
   17.1310   -2.3136   18.9130 H   0  0  0  0  0  0  0  0  0  0  0  0
   17.2930   -1.0611   20.9953 H   0  0  0  0  0  0  0  0  0  0  0  0
   13.9341    1.3034   19.8969 H   0  0  0  0  0  0  0  0  0  0  0  0
   13.6248   -0.0124   17.8406 H   0  0  0  0  0  0  0  0  0  0  0  0
  1  2  1  0
  2  3  1  0
  3  4  1  0
  4  5  2  0
  4  6  1  0
  2  7  1  0
  7  8  2  0
  8  9  1  0
  9 10  2  0
 10 11  1  0
 11 12  2  0
  2 13  1  0
 13 14  2  0
 14 15  1  0
 15 16  2  0
 16 17  1  0
 16 18  1  0
 18 19  2  0
 12  7  1  0
 19 13  1  0
  1 20  1  0
  1 21  1  0
  3 22  1  0
  3 23  1  0
  6 24  1  0
  8 25  1  0
  9 26  1  0
 10 27  1  0
 11 28  1  0
 12 29  1  0
 14 30  1  0
 15 31  1  0
 18 32  1  0
 19 33  1  0
M  END
>  <Energy>  (448) 
27.7654377844968

>  <compound_id>  (448) 
1420

>  <target_id>  (448) 
1

>  <reference_id>  (448) 
117

>  <inspiration_ids>  (448) 
[117, 71]

>  <energy_score>  (448) 
-25.976652463934812

>  <distance_score>  (448) 
1.6027656777659658

>  <path>  (448) 
/opt/xchem-fragalysis-2/maxwin/BulkDock/SCRATCH/505734/C1420-P117/C1420-P117.minimised.mol

>  <scratch_subdir>  (448) 
/opt/xchem-fragalysis-2/maxwin/BulkDock/SCRATCH/505734/C1420-P117

>  <fragmenstein_runtime>  (448) 
285.64366483688354

>  <fragmenstein_outcome>  (448) 
too moved

>  <fragmenstein_mode>  (448) 
expansion

>  <fragmenstein_error>  (448) 


$$$$
C1420-P71
     RDKit          3D

 33 34  0  0  0  0  0  0  0  0999 V2000
   15.9948   -2.8550   16.4234 N   0  0  0  0  0  0  0  0  0  0  0  0
   14.8305   -2.5114   17.2610 C   0  0  0  0  0  0  0  0  0  0  0  0
   14.3552   -3.7683   18.0588 C   0  0  0  0  0  0  0  0  0  0  0  0
   15.3234   -4.4276   19.0004 C   0  0  0  0  0  0  0  0  0  0  0  0
   15.1495   -4.6383   20.1882 O   0  0  0  0  0  0  0  0  0  0  0  0
   16.4347   -4.8888   18.3913 O   0  0  0  0  0  0  0  0  0  0  0  0
   13.7193   -2.0673   16.2725 C   0  0  0  0  0  0  0  0  0  0  0  0
   13.9396   -0.9375   15.4588 C   0  0  0  0  0  0  0  0  0  0  0  0
   12.9612   -0.4746   14.5888 C   0  0  0  0  0  0  0  0  0  0  0  0
   11.7584   -1.1536   14.4868 C   0  0  0  0  0  0  0  0  0  0  0  0
   11.5390   -2.3168   15.2122 C   0  0  0  0  0  0  0  0  0  0  0  0
   12.5054   -2.7640   16.1080 C   0  0  0  0  0  0  0  0  0  0  0  0
   15.2191   -1.4103   18.2841 C   0  0  0  0  0  0  0  0  0  0  0  0
   16.3901   -1.5548   19.0563 C   0  0  0  0  0  0  0  0  0  0  0  0
   16.6058   -0.7887   20.1980 C   0  0  0  0  0  0  0  0  0  0  0  0
   15.6761    0.1654   20.5514 C   0  0  0  0  0  0  0  0  0  0  0  0
   15.7758    0.7640   21.7374 F   0  0  0  0  0  0  0  0  0  0  0  0
   14.6201    0.4705   19.7149 C   0  0  0  0  0  0  0  0  0  0  0  0
   14.3875   -0.3164   18.5852 C   0  0  0  0  0  0  0  0  0  0  0  0
   16.6117   -3.4864   16.9376 H   0  0  0  0  0  0  0  0  0  0  0  0
   15.6775   -3.4015   15.6218 H   0  0  0  0  0  0  0  0  0  0  0  0
   13.4748   -3.5102   18.6642 H   0  0  0  0  0  0  0  0  0  0  0  0
   14.0439   -4.5668   17.3744 H   0  0  0  0  0  0  0  0  0  0  0  0
   16.9213   -5.3448   19.1142 H   0  0  0  0  0  0  0  0  0  0  0  0
   14.8865   -0.4012   15.5207 H   0  0  0  0  0  0  0  0  0  0  0  0
   13.1380    0.4156   13.9914 H   0  0  0  0  0  0  0  0  0  0  0  0
   10.9988   -0.7590   13.8221 H   0  0  0  0  0  0  0  0  0  0  0  0
   10.6134   -2.8667   15.0685 H   0  0  0  0  0  0  0  0  0  0  0  0
   12.2707   -3.6701   16.6577 H   0  0  0  0  0  0  0  0  0  0  0  0
   17.1200   -2.3261   18.8245 H   0  0  0  0  0  0  0  0  0  0  0  0
   17.4574   -0.9786   20.8425 H   0  0  0  0  0  0  0  0  0  0  0  0
   13.9583    1.2854   19.9831 H   0  0  0  0  0  0  0  0  0  0  0  0
   13.5116   -0.0924   17.9846 H   0  0  0  0  0  0  0  0  0  0  0  0
  1  2  1  0
  2  3  1  0
  3  4  1  0
  4  5  2  0
  4  6  1  0
  2  7  1  0
  7  8  2  0
  8  9  1  0
  9 10  2  0
 10 11  1  0
 11 12  2  0
  2 13  1  0
 13 14  2  0
 14 15  1  0
 15 16  2  0
 16 17  1  0
 16 18  1  0
 18 19  2  0
 12  7  1  0
 19 13  1  0
  1 20  1  0
  1 21  1  0
  3 22  1  0
  3 23  1  0
  6 24  1  0
  8 25  1  0
  9 26  1  0
 10 27  1  0
 11 28  1  0
 12 29  1  0
 14 30  1  0
 15 31  1  0
 18 32  1  0
 19 33  1  0
M  END
>  <Energy>  (449) 
28.452765143361901

>  <compound_id>  (449) 
1420

>  <target_id>  (449) 
1

>  <reference_id>  (449) 
71

>  <inspiration_ids>  (449) 
[117, 71]

>  <energy_score>  (449) 
-25.28932510506803

>  <distance_score>  (449) 
1.6075822033911857

>  <path>  (449) 
/opt/xchem-fragalysis-2/maxwin/BulkDock/SCRATCH/505734/C1420-P71/C1420-P71.minimised.mol

>  <scratch_subdir>  (449) 
/opt/xchem-fragalysis-2/maxwin/BulkDock/SCRATCH/505734/C1420-P71

>  <fragmenstein_runtime>  (449) 
284.8559582233429

>  <fragmenstein_outcome>  (449) 
too moved

>  <fragmenstein_mode>  (449) 
expansion

>  <fragmenstein_error>  (449) 


$$$$
C3439-P117
     RDKit          3D

 35 36  0  0  0  0  0  0  0  0999 V2000
   13.0157    3.1590   16.2646 C   0  0  0  0  0  0  0  0  0  0  0  0
   13.0702    1.6644   16.2558 C   0  0  0  0  0  0  0  0  0  0  0  0
   12.1513    0.7395   15.7813 C   0  0  0  0  0  0  0  0  0  0  0  0
   10.8259    1.0148   15.1440 C   0  0  0  0  0  0  0  0  0  0  0  0
   10.8609    0.8223   13.6379 C   0  0  0  0  0  0  0  0  0  0  0  0
   11.2228    2.1089   12.9072 C   0  0  0  0  0  0  0  0  0  0  0  0
   12.6490    2.3239   12.8829 N   0  0  0  0  0  0  0  0  0  0  0  0
   10.3238    2.7645   12.4529 O   0  0  0  0  0  0  0  0  0  0  0  0
   12.6687   -0.5651   16.0543 C   0  0  0  0  0  0  0  0  0  0  0  0
   12.1803   -1.8698   15.8339 C   0  0  0  0  0  0  0  0  0  0  0  0
   12.9084   -2.9502   16.3260 C   0  0  0  0  0  0  0  0  0  0  0  0
   12.4150   -4.1859   16.1913 F   0  0  0  0  0  0  0  0  0  0  0  0
   14.1171   -2.7775   16.9782 C   0  0  0  0  0  0  0  0  0  0  0  0
   14.6351   -1.4975   17.1750 C   0  0  0  0  0  0  0  0  0  0  0  0
   13.8872   -0.4004   16.7137 C   0  0  0  0  0  0  0  0  0  0  0  0
   14.1161    0.9591   16.8211 N   0  0  0  0  0  0  0  0  0  0  0  0
   15.2932    1.5508   17.4490 C   0  0  0  0  0  0  0  0  0  0  0  0
   15.0821    1.8933   18.8969 C   0  0  0  0  0  0  0  0  0  0  0  0
   15.3456    2.9689   19.4128 O   0  0  0  0  0  0  0  0  0  0  0  0
   14.6279    0.8721   19.6483 O   0  0  0  0  0  0  0  0  0  0  0  0
   13.8430    3.5760   15.6817 H   0  0  0  0  0  0  0  0  0  0  0  0
   13.0764    3.5411   17.2884 H   0  0  0  0  0  0  0  0  0  0  0  0
   12.0855    3.5329   15.8284 H   0  0  0  0  0  0  0  0  0  0  0  0
   10.0931    0.3178   15.5721 H   0  0  0  0  0  0  0  0  0  0  0  0
   10.4680    2.0171   15.4042 H   0  0  0  0  0  0  0  0  0  0  0  0
   11.5178    0.0058   13.3195 H   0  0  0  0  0  0  0  0  0  0  0  0
    9.8534    0.5548   13.3098 H   0  0  0  0  0  0  0  0  0  0  0  0
   13.1098    1.6079   13.4805 H   0  0  0  0  0  0  0  0  0  0  0  0
   13.1247    1.4863   13.2758 H   0  0  0  0  0  0  0  0  0  0  0  0
   11.2387   -2.0510   15.3247 H   0  0  0  0  0  0  0  0  0  0  0  0
   14.6504   -3.6474   17.3494 H   0  0  0  0  0  0  0  0  0  0  0  0
   15.5709   -1.3697   17.7107 H   0  0  0  0  0  0  0  0  0  0  0  0
   15.5483    2.4589   16.8939 H   0  0  0  0  0  0  0  0  0  0  0  0
   16.1399    0.8654   17.3520 H   0  0  0  0  0  0  0  0  0  0  0  0
   14.5439    1.2351   20.5566 H   0  0  0  0  0  0  0  0  0  0  0  0
  1  2  1  0
  2  3  2  0
  3  4  1  0
  4  5  1  0
  5  6  1  0
  6  7  1  0
  6  8  2  0
  3  9  1  0
  9 10  2  0
 10 11  1  0
 11 12  1  0
 11 13  2  0
 13 14  1  0
 14 15  2  0
 15 16  1  0
 16 17  1  0
 17 18  1  0
 18 19  2  0
 18 20  1  0
 16  2  1  0
 15  9  1  0
  1 21  1  0
  1 22  1  0
  1 23  1  0
  4 24  1  0
  4 25  1  0
  5 26  1  0
  5 27  1  0
  7 28  1  0
  7 29  1  0
 10 30  1  0
 13 31  1  0
 14 32  1  0
 17 33  1  0
 17 34  1  0
 20 35  1  0
M  END
>  <Energy>  (450) 
157.65892492142004

>  <compound_id>  (450) 
3439

>  <target_id>  (450) 
1

>  <reference_id>  (450) 
117

>  <inspiration_ids>  (450) 
[117, 80]

>  <energy_score>  (450) 
121.31468485168796

>  <distance_score>  (450) 
1.565725391240245

>  <path>  (450) 
/opt/xchem-fragalysis-2/maxwin/BulkDock/SCRATCH/505734/C3439-P117/C3439-P117.minimised.mol

>  <scratch_subdir>  (450) 
/opt/xchem-fragalysis-2/maxwin/BulkDock/SCRATCH/505734/C3439-P117

>  <fragmenstein_runtime>  (450) 
19.470823287963867

>  <fragmenstein_outcome>  (450) 
too moved

>  <fragmenstein_mode>  (450) 
expansion

>  <fragmenstein_error>  (450) 


$$$$
C3439-P80
     RDKit          3D

 35 36  0  0  0  0  0  0  0  0999 V2000
   13.0538    3.1261   16.3152 C   0  0  0  0  0  0  0  0  0  0  0  0
   13.1124    1.6316   16.3215 C   0  0  0  0  0  0  0  0  0  0  0  0
   12.2105    0.6997   15.8286 C   0  0  0  0  0  0  0  0  0  0  0  0
   10.9028    0.9642   15.1521 C   0  0  0  0  0  0  0  0  0  0  0  0
   10.9790    0.7507   13.6508 C   0  0  0  0  0  0  0  0  0  0  0  0
   11.3315    2.0347   12.9122 C   0  0  0  0  0  0  0  0  0  0  0  0
   12.7530    2.2819   12.9271 N   0  0  0  0  0  0  0  0  0  0  0  0
   10.4325    2.6617   12.4194 O   0  0  0  0  0  0  0  0  0  0  0  0
   12.7190   -0.6009   16.1353 C   0  0  0  0  0  0  0  0  0  0  0  0
   12.2369   -1.9087   15.9185 C   0  0  0  0  0  0  0  0  0  0  0  0
   12.9472   -2.9815   16.4515 C   0  0  0  0  0  0  0  0  0  0  0  0
   12.4599   -4.2200   16.3163 F   0  0  0  0  0  0  0  0  0  0  0  0
   14.1334   -2.7992   17.1412 C   0  0  0  0  0  0  0  0  0  0  0  0
   14.6457   -1.5166   17.3354 C   0  0  0  0  0  0  0  0  0  0  0  0
   13.9145   -0.4265   16.8330 C   0  0  0  0  0  0  0  0  0  0  0  0
   14.1390    0.9346   16.9308 N   0  0  0  0  0  0  0  0  0  0  0  0
   15.2919    1.5349   17.5942 C   0  0  0  0  0  0  0  0  0  0  0  0
   15.0343    1.8760   19.0351 C   0  0  0  0  0  0  0  0  0  0  0  0
   15.2581    2.9588   19.5548 O   0  0  0  0  0  0  0  0  0  0  0  0
   14.5862    0.8448   19.7764 O   0  0  0  0  0  0  0  0  0  0  0  0
   13.8937    3.5394   15.7480 H   0  0  0  0  0  0  0  0  0  0  0  0
   13.0897    3.5183   17.3363 H   0  0  0  0  0  0  0  0  0  0  0  0
   12.1332    3.4933   15.8539 H   0  0  0  0  0  0  0  0  0  0  0  0
   10.1597    0.2716   15.5697 H   0  0  0  0  0  0  0  0  0  0  0  0
   10.5360    1.9690   15.3894 H   0  0  0  0  0  0  0  0  0  0  0  0
   11.6600   -0.0561   13.3589 H   0  0  0  0  0  0  0  0  0  0  0  0
    9.9862    0.4577   13.3021 H   0  0  0  0  0  0  0  0  0  0  0  0
   13.2113    1.5869   13.5510 H   0  0  0  0  0  0  0  0  0  0  0  0
   13.2351    1.4622   13.3491 H   0  0  0  0  0  0  0  0  0  0  0  0
   11.3123   -2.0974   15.3817 H   0  0  0  0  0  0  0  0  0  0  0  0
   14.6526   -3.6632   17.5444 H   0  0  0  0  0  0  0  0  0  0  0  0
   15.5621   -1.3805   17.9016 H   0  0  0  0  0  0  0  0  0  0  0  0
   15.5584    2.4446   17.0473 H   0  0  0  0  0  0  0  0  0  0  0  0
   16.1458    0.8552   17.5229 H   0  0  0  0  0  0  0  0  0  0  0  0
   14.4593    1.2074   20.6798 H   0  0  0  0  0  0  0  0  0  0  0  0
  1  2  1  0
  2  3  2  0
  3  4  1  0
  4  5  1  0
  5  6  1  0
  6  7  1  0
  6  8  2  0
  3  9  1  0
  9 10  2  0
 10 11  1  0
 11 12  1  0
 11 13  2  0
 13 14  1  0
 14 15  2  0
 15 16  1  0
 16 17  1  0
 17 18  1  0
 18 19  2  0
 18 20  1  0
 16  2  1  0
 15  9  1  0
  1 21  1  0
  1 22  1  0
  1 23  1  0
  4 24  1  0
  4 25  1  0
  5 26  1  0
  5 27  1  0
  7 28  1  0
  7 29  1  0
 10 30  1  0
 13 31  1  0
 14 32  1  0
 17 33  1  0
 17 34  1  0
 20 35  1  0
M  END
>  <Energy>  (451) 
157.81260961845445

>  <compound_id>  (451) 
3439

>  <target_id>  (451) 
1

>  <reference_id>  (451) 
80

>  <inspiration_ids>  (451) 
[117, 80]

>  <energy_score>  (451) 
121.46836954871938

>  <distance_score>  (451) 
1.6044946710049333

>  <path>  (451) 
/opt/xchem-fragalysis-2/maxwin/BulkDock/SCRATCH/505734/C3439-P80/C3439-P80.minimised.mol

>  <scratch_subdir>  (451) 
/opt/xchem-fragalysis-2/maxwin/BulkDock/SCRATCH/505734/C3439-P80

>  <fragmenstein_runtime>  (451) 
18.941948175430298

>  <fragmenstein_outcome>  (451) 
too moved

>  <fragmenstein_mode>  (451) 
expansion

>  <fragmenstein_error>  (451) 


$$$$
C1565-P117
     RDKit          3D

 30 30  0  0  0  0  0  0  0  0999 V2000
   15.4961   -0.4167   19.9982 C   0  0  0  0  0  0  0  0  0  0  0  0
   15.6833    0.7719   19.0941 C   0  0  0  0  0  0  0  0  0  0  0  0
   15.2051    0.4887   17.4043 S   0  0  0  0  0  0  0  0  0  0  0  0
   15.8079   -0.7365   16.9449 O   0  0  0  0  0  0  0  0  0  0  0  0
   15.3788    1.7273   16.6766 O   0  0  0  0  0  0  0  0  0  0  0  0
   13.5349    0.2744   17.5045 N   0  0  0  0  0  0  0  0  0  0  0  0
   13.0176   -0.7896   16.6885 C   0  0  0  0  0  0  0  0  0  0  0  0
   12.2407   -0.5214   15.5715 C   0  0  0  0  0  0  0  0  0  0  0  0
   11.8757    0.7331   15.2927 F   0  0  0  0  0  0  0  0  0  0  0  0
   11.7813   -1.5472   14.7620 C   0  0  0  0  0  0  0  0  0  0  0  0
   12.1438   -2.8638   15.0355 C   0  0  0  0  0  0  0  0  0  0  0  0
   12.9822   -3.1278   16.1131 C   0  0  0  0  0  0  0  0  0  0  0  0
   13.5495   -4.3586   16.3099 O   0  0  0  0  0  0  0  0  0  0  0  0
   14.9972   -4.2546   16.4027 C   0  0  0  0  0  0  0  0  0  0  0  0
   15.5386   -4.6047   17.7866 C   0  0  0  0  0  0  0  0  0  0  0  0
   16.7260   -4.7116   18.0549 O   0  0  0  0  0  0  0  0  0  0  0  0
   14.5618   -4.8769   18.6911 O   0  0  0  0  0  0  0  0  0  0  0  0
   13.3124   -2.1072   16.9828 C   0  0  0  0  0  0  0  0  0  0  0  0
   13.9515   -2.4258   18.1144 F   0  0  0  0  0  0  0  0  0  0  0  0
   14.4426   -0.7035   20.0631 H   0  0  0  0  0  0  0  0  0  0  0  0
   16.0572   -1.2847   19.6380 H   0  0  0  0  0  0  0  0  0  0  0  0
   15.8434   -0.1849   21.0097 H   0  0  0  0  0  0  0  0  0  0  0  0
   15.1133    1.6342   19.4544 H   0  0  0  0  0  0  0  0  0  0  0  0
   16.7401    1.0582   19.0682 H   0  0  0  0  0  0  0  0  0  0  0  0
   13.1113    1.1795   17.2645 H   0  0  0  0  0  0  0  0  0  0  0  0
   11.1699   -1.3006   13.9034 H   0  0  0  0  0  0  0  0  0  0  0  0
   11.8024   -3.6416   14.3657 H   0  0  0  0  0  0  0  0  0  0  0  0
   15.3882   -3.2783   16.0947 H   0  0  0  0  0  0  0  0  0  0  0  0
   15.4137   -4.9907   15.7115 H   0  0  0  0  0  0  0  0  0  0  0  0
   13.6828   -4.5895   18.3567 H   0  0  0  0  0  0  0  0  0  0  0  0
  1  2  1  0
  2  3  1  0
  3  4  2  0
  3  5  2  0
  3  6  1  0
  6  7  1  0
  7  8  2  0
  8  9  1  0
  8 10  1  0
 10 11  2  0
 11 12  1  0
 12 13  1  0
 13 14  1  0
 14 15  1  0
 15 16  2  0
 15 17  1  0
 12 18  2  0
 18 19  1  0
 18  7  1  0
  1 20  1  0
  1 21  1  0
  1 22  1  0
  2 23  1  0
  2 24  1  0
  6 25  1  0
 10 26  1  0
 11 27  1  0
 14 28  1  0
 14 29  1  0
 17 30  1  0
M  END
>  <Energy>  (452) 
3.4289614529400696

>  <compound_id>  (452) 
1565

>  <target_id>  (452) 
1

>  <reference_id>  (452) 
117

>  <inspiration_ids>  (452) 
[117, 81]

>  <energy_score>  (452) 
-49.19708954621075

>  <distance_score>  (452) 
1.8409418182534367

>  <path>  (452) 
/opt/xchem-fragalysis-2/maxwin/BulkDock/SCRATCH/505734/C1565-P117/C1565-P117.minimised.mol

>  <scratch_subdir>  (452) 
/opt/xchem-fragalysis-2/maxwin/BulkDock/SCRATCH/505734/C1565-P117

>  <fragmenstein_runtime>  (452) 
2.2727251052856445

>  <fragmenstein_outcome>  (452) 
too moved

>  <fragmenstein_mode>  (452) 
expansion

>  <fragmenstein_error>  (452) 


$$$$
C1565-P81
     RDKit          3D

 30 30  0  0  0  0  0  0  0  0999 V2000
   16.6047    0.5338   19.9244 C   0  0  0  0  0  0  0  0  0  0  0  0
   16.3487    0.4866   18.4317 C   0  0  0  0  0  0  0  0  0  0  0  0
   14.6128    0.3064   18.0976 S   0  0  0  0  0  0  0  0  0  0  0  0
   13.9186    1.4930   18.5335 O   0  0  0  0  0  0  0  0  0  0  0  0
   14.2142   -1.0054   18.5508 O   0  0  0  0  0  0  0  0  0  0  0  0
   14.5728    0.3932   16.4032 N   0  0  0  0  0  0  0  0  0  0  0  0
   13.9002   -0.7058   15.7821 C   0  0  0  0  0  0  0  0  0  0  0  0
   12.6075   -0.5894   15.2731 C   0  0  0  0  0  0  0  0  0  0  0  0
   12.0125    0.6066   15.2032 F   0  0  0  0  0  0  0  0  0  0  0  0
   11.8861   -1.7119   14.8941 C   0  0  0  0  0  0  0  0  0  0  0  0
   12.4329   -2.9701   15.1281 C   0  0  0  0  0  0  0  0  0  0  0  0
   13.7119   -3.0789   15.6863 C   0  0  0  0  0  0  0  0  0  0  0  0
   14.2385   -4.2695   16.1369 O   0  0  0  0  0  0  0  0  0  0  0  0
   14.4502   -4.2165   17.5723 C   0  0  0  0  0  0  0  0  0  0  0  0
   13.0947   -4.3276   18.1860 C   0  0  0  0  0  0  0  0  0  0  0  0
   12.0575   -4.3103   17.5404 O   0  0  0  0  0  0  0  0  0  0  0  0
   13.0778   -4.4592   19.5207 O   0  0  0  0  0  0  0  0  0  0  0  0
   14.4679   -1.9548   15.8962 C   0  0  0  0  0  0  0  0  0  0  0  0
   15.6950   -2.1012   16.4105 F   0  0  0  0  0  0  0  0  0  0  0  0
   17.6749    0.6475   20.1225 H   0  0  0  0  0  0  0  0  0  0  0  0
   16.0808    1.3749   20.3898 H   0  0  0  0  0  0  0  0  0  0  0  0
   16.2634   -0.3841   20.4137 H   0  0  0  0  0  0  0  0  0  0  0  0
   16.6847    1.4142   17.9593 H   0  0  0  0  0  0  0  0  0  0  0  0
   16.8693   -0.3624   17.9804 H   0  0  0  0  0  0  0  0  0  0  0  0
   14.1817    1.3023   16.1352 H   0  0  0  0  0  0  0  0  0  0  0  0
   10.8780   -1.6068   14.5032 H   0  0  0  0  0  0  0  0  0  0  0  0
   11.8145   -3.8454   14.9702 H   0  0  0  0  0  0  0  0  0  0  0  0
   14.9438   -3.3171   17.9377 H   0  0  0  0  0  0  0  0  0  0  0  0
   15.0891   -5.0470   17.8656 H   0  0  0  0  0  0  0  0  0  0  0  0
   12.1039   -4.3582   19.7021 H   0  0  0  0  0  0  0  0  0  0  0  0
  1  2  1  0
  2  3  1  0
  3  4  2  0
  3  5  2  0
  3  6  1  0
  6  7  1  0
  7  8  2  0
  8  9  1  0
  8 10  1  0
 10 11  2  0
 11 12  1  0
 12 13  1  0
 13 14  1  0
 14 15  1  0
 15 16  2  0
 15 17  1  0
 12 18  2  0
 18 19  1  0
 18  7  1  0
  1 20  1  0
  1 21  1  0
  1 22  1  0
  2 23  1  0
  2 24  1  0
  6 25  1  0
 10 26  1  0
 11 27  1  0
 14 28  1  0
 14 29  1  0
 17 30  1  0
M  END
>  <Energy>  (453) 
7.57653911089107

>  <compound_id>  (453) 
1565

>  <target_id>  (453) 
1

>  <reference_id>  (453) 
81

>  <inspiration_ids>  (453) 
[117, 81]

>  <energy_score>  (453) 
-45.049511888259474

>  <distance_score>  (453) 
1.5822362899631146

>  <path>  (453) 
/opt/xchem-fragalysis-2/maxwin/BulkDock/SCRATCH/505734/C1565-P81/C1565-P81.minimised.mol

>  <scratch_subdir>  (453) 
/opt/xchem-fragalysis-2/maxwin/BulkDock/SCRATCH/505734/C1565-P81

>  <fragmenstein_runtime>  (453) 
1.8684265613555908

>  <fragmenstein_outcome>  (453) 
too moved

>  <fragmenstein_mode>  (453) 
expansion

>  <fragmenstein_error>  (453) 


$$$$
C3441-P117
     RDKit          3D

 26 26  0  0  0  0  0  0  0  0999 V2000
   16.0388   -2.3040   19.5955 O   0  0  0  0  0  0  0  0  0  0  0  0
   16.5768   -3.3112   19.1620 C   0  0  0  0  0  0  0  0  0  0  0  0
   17.8904   -3.5727   19.3860 O   0  0  0  0  0  0  0  0  0  0  0  0
   15.8966   -4.3955   18.3180 C   0  0  0  0  0  0  0  0  0  0  0  0
   14.5028   -4.2486   18.0882 O   0  0  0  0  0  0  0  0  0  0  0  0
   14.1602   -3.5839   16.8634 C   0  0  0  0  0  0  0  0  0  0  0  0
   12.6432   -3.7168   16.7029 C   0  0  0  0  0  0  0  0  0  0  0  0
   12.0303   -2.9146   15.5597 C   0  0  0  0  0  0  0  0  0  0  0  0
   12.5147   -1.4755   15.5466 C   0  0  0  0  0  0  0  0  0  0  0  0
   12.1284   -0.9010   14.3704 F   0  0  0  0  0  0  0  0  0  0  0  0
   14.0333   -1.4032   15.6273 C   0  0  0  0  0  0  0  0  0  0  0  0
   14.5782   -2.0887   14.5045 O   0  0  0  0  0  0  0  0  0  0  0  0
   14.5621   -2.1047   16.8664 C   0  0  0  0  0  0  0  0  0  0  0  0
   18.2058   -4.4116   19.0000 H   0  0  0  0  0  0  0  0  0  0  0  0
   16.0121   -5.3307   18.8770 H   0  0  0  0  0  0  0  0  0  0  0  0
   16.4373   -4.4993   17.3703 H   0  0  0  0  0  0  0  0  0  0  0  0
   14.6493   -4.1152   16.0395 H   0  0  0  0  0  0  0  0  0  0  0  0
   12.3708   -4.7716   16.6030 H   0  0  0  0  0  0  0  0  0  0  0  0
   12.2071   -3.3832   17.6410 H   0  0  0  0  0  0  0  0  0  0  0  0
   12.2560   -3.3775   14.5967 H   0  0  0  0  0  0  0  0  0  0  0  0
   10.9386   -2.9291   15.6265 H   0  0  0  0  0  0  0  0  0  0  0  0
   12.0585   -0.9056   16.3624 H   0  0  0  0  0  0  0  0  0  0  0  0
   14.3733   -0.3635   15.5870 H   0  0  0  0  0  0  0  0  0  0  0  0
   14.1499   -1.7087   13.7117 H   0  0  0  0  0  0  0  0  0  0  0  0
   14.1973   -1.6091   17.7734 H   0  0  0  0  0  0  0  0  0  0  0  0
   15.6553   -2.0297   16.8790 H   0  0  0  0  0  0  0  0  0  0  0  0
  1  2  2  0
  2  3  1  0
  2  4  1  0
  4  5  1  0
  5  6  1  0
  6  7  1  0
  7  8  1  0
  8  9  1  0
  9 10  1  0
  9 11  1  0
 11 12  1  0
 11 13  1  0
 13  6  1  0
  3 14  1  0
  4 15  1  0
  4 16  1  0
  6 17  1  0
  7 18  1  0
  7 19  1  0
  8 20  1  0
  8 21  1  0
  9 22  1  0
 11 23  1  0
 12 24  1  0
 13 25  1  0
 13 26  1  0
M  END
>  <Energy>  (454) 
46.559277819921952

>  <compound_id>  (454) 
3441

>  <target_id>  (454) 
1

>  <reference_id>  (454) 
117

>  <inspiration_ids>  (454) 
[117, 86]

>  <energy_score>  (454) 
-39.91125699048132

>  <distance_score>  (454) 
1.5427703712355751

>  <path>  (454) 
/opt/xchem-fragalysis-2/maxwin/BulkDock/SCRATCH/505734/C3441-P117/C3441-P117.minimised.mol

>  <scratch_subdir>  (454) 
/opt/xchem-fragalysis-2/maxwin/BulkDock/SCRATCH/505734/C3441-P117

>  <fragmenstein_runtime>  (454) 
0.962512731552124

>  <fragmenstein_outcome>  (454) 
too moved

>  <fragmenstein_mode>  (454) 
expansion

>  <fragmenstein_error>  (454) 


$$$$
C3441-P86
     RDKit          3D

 26 26  0  0  0  0  0  0  0  0999 V2000
   16.1561   -2.5430   19.5258 O   0  0  0  0  0  0  0  0  0  0  0  0
   16.5945   -3.5885   19.0709 C   0  0  0  0  0  0  0  0  0  0  0  0
   17.8872   -3.9616   19.2559 O   0  0  0  0  0  0  0  0  0  0  0  0
   15.8026   -4.6048   18.2399 C   0  0  0  0  0  0  0  0  0  0  0  0
   14.4209   -4.3400   18.0501 O   0  0  0  0  0  0  0  0  0  0  0  0
   14.1034   -3.6372   16.8420 C   0  0  0  0  0  0  0  0  0  0  0  0
   12.5821   -3.7014   16.6849 C   0  0  0  0  0  0  0  0  0  0  0  0
   12.0134   -2.8694   15.5411 C   0  0  0  0  0  0  0  0  0  0  0  0
   12.5460   -1.4475   15.5578 C   0  0  0  0  0  0  0  0  0  0  0  0
   12.1893   -0.8397   14.3892 F   0  0  0  0  0  0  0  0  0  0  0  0
   14.0659   -1.4272   15.6534 C   0  0  0  0  0  0  0  0  0  0  0  0
   14.5979   -2.1013   14.5176 O   0  0  0  0  0  0  0  0  0  0  0  0
   14.5652   -2.1763   16.8775 C   0  0  0  0  0  0  0  0  0  0  0  0
   18.1191   -4.8210   18.8557 H   0  0  0  0  0  0  0  0  0  0  0  0
   15.8538   -5.5521   18.7884 H   0  0  0  0  0  0  0  0  0  0  0  0
   16.3074   -4.7452   17.2773 H   0  0  0  0  0  0  0  0  0  0  0  0
   14.5657   -4.1694   16.0038 H   0  0  0  0  0  0  0  0  0  0  0  0
   12.2601   -4.7420   16.5853 H   0  0  0  0  0  0  0  0  0  0  0  0
   12.1622   -3.3461   17.6227 H   0  0  0  0  0  0  0  0  0  0  0  0
   12.2398   -3.3296   14.5766 H   0  0  0  0  0  0  0  0  0  0  0  0
   10.9212   -2.8460   15.5904 H   0  0  0  0  0  0  0  0  0  0  0  0
   12.1018   -0.8775   16.3805 H   0  0  0  0  0  0  0  0  0  0  0  0
   14.4398   -0.3984   15.6411 H   0  0  0  0  0  0  0  0  0  0  0  0
   14.1850   -1.6911   13.7317 H   0  0  0  0  0  0  0  0  0  0  0  0
   14.2206   -1.6872   17.7962 H   0  0  0  0  0  0  0  0  0  0  0  0
   15.6605   -2.1468   16.8913 H   0  0  0  0  0  0  0  0  0  0  0  0
  1  2  2  0
  2  3  1  0
  2  4  1  0
  4  5  1  0
  5  6  1  0
  6  7  1  0
  7  8  1  0
  8  9  1  0
  9 10  1  0
  9 11  1  0
 11 12  1  0
 11 13  1  0
 13  6  1  0
  3 14  1  0
  4 15  1  0
  4 16  1  0
  6 17  1  0
  7 18  1  0
  7 19  1  0
  8 20  1  0
  8 21  1  0
  9 22  1  0
 11 23  1  0
 12 24  1  0
 13 25  1  0
 13 26  1  0
M  END
>  <Energy>  (455) 
46.382929232144043

>  <compound_id>  (455) 
3441

>  <target_id>  (455) 
1

>  <reference_id>  (455) 
86

>  <inspiration_ids>  (455) 
[117, 86]

>  <energy_score>  (455) 
-40.087605578259286

>  <distance_score>  (455) 
1.4651010243286604

>  <path>  (455) 
/opt/xchem-fragalysis-2/maxwin/BulkDock/SCRATCH/505734/C3441-P86/C3441-P86.minimised.mol

>  <scratch_subdir>  (455) 
/opt/xchem-fragalysis-2/maxwin/BulkDock/SCRATCH/505734/C3441-P86

>  <fragmenstein_runtime>  (455) 
0.9545354843139648

>  <fragmenstein_outcome>  (455) 
too moved

>  <fragmenstein_mode>  (455) 
expansion

>  <fragmenstein_error>  (455) 


$$$$
C3443-P117
     RDKit          3D

 42 44  0  0  0  0  0  0  0  0999 V2000
   10.6886    2.3711   14.1593 O   0  0  0  0  0  0  0  0  0  0  0  0
   10.2878    1.6131   15.0277 C   0  0  0  0  0  0  0  0  0  0  0  0
    9.8364    2.1095   16.2059 O   0  0  0  0  0  0  0  0  0  0  0  0
   10.1672    0.1039   14.9647 C   0  0  0  0  0  0  0  0  0  0  0  0
   11.1195   -0.4346   14.0517 O   0  0  0  0  0  0  0  0  0  0  0  0
   11.8791   -1.3938   14.6470 C   0  0  0  0  0  0  0  0  0  0  0  0
   11.3668   -2.5621   15.2012 C   0  0  0  0  0  0  0  0  0  0  0  0
   12.1980   -3.3770   15.9670 C   0  0  0  0  0  0  0  0  0  0  0  0
   13.5394   -3.0385   16.1189 C   0  0  0  0  0  0  0  0  0  0  0  0
   14.2972   -3.8002   16.9242 F   0  0  0  0  0  0  0  0  0  0  0  0
   14.0808   -1.9310   15.4450 C   0  0  0  0  0  0  0  0  0  0  0  0
   15.5405   -1.5249   15.6172 C   0  0  0  0  0  0  0  0  0  0  0  0
   15.5932   -0.6986   16.9065 C   0  0  0  0  0  0  0  0  0  0  0  0
   16.1894   -1.2203   18.0673 C   0  0  0  0  0  0  0  0  0  0  0  0
   16.0166   -0.5958   19.2982 C   0  0  0  0  0  0  0  0  0  0  0  0
   15.2431    0.5550   19.3831 C   0  0  0  0  0  0  0  0  0  0  0  0
   14.6789    1.1040   18.2371 C   0  0  0  0  0  0  0  0  0  0  0  0
   14.8660    0.4950   17.0038 C   0  0  0  0  0  0  0  0  0  0  0  0
   16.0940   -0.7967   14.4349 N   0  0  0  0  0  0  0  0  0  0  0  0
   17.5685   -0.9791   14.3693 C   0  0  0  0  0  0  0  0  0  0  0  0
   17.3787   -2.1913   13.4284 C   0  0  0  0  0  0  0  0  0  0  0  0
   17.4260   -3.4999   14.0422 O   0  0  0  0  0  0  0  0  0  0  0  0
   15.9864   -1.6021   13.1754 C   0  0  0  0  0  0  0  0  0  0  0  0
   13.2240   -1.1112   14.7094 C   0  0  0  0  0  0  0  0  0  0  0  0
   10.0584    3.0666   16.1535 H   0  0  0  0  0  0  0  0  0  0  0  0
    9.1594   -0.1459   14.6223 H   0  0  0  0  0  0  0  0  0  0  0  0
   10.2925   -0.2750   15.9869 H   0  0  0  0  0  0  0  0  0  0  0  0
   10.3259   -2.8211   15.0451 H   0  0  0  0  0  0  0  0  0  0  0  0
   11.8175   -4.2735   16.4461 H   0  0  0  0  0  0  0  0  0  0  0  0
   16.1014   -2.4525   15.7865 H   0  0  0  0  0  0  0  0  0  0  0  0
   16.7464   -2.1544   18.0218 H   0  0  0  0  0  0  0  0  0  0  0  0
   16.4627   -1.0212   20.1932 H   0  0  0  0  0  0  0  0  0  0  0  0
   15.0946    1.0374   20.3461 H   0  0  0  0  0  0  0  0  0  0  0  0
   14.0974    2.0201   18.3084 H   0  0  0  0  0  0  0  0  0  0  0  0
   14.4182    0.9480   16.1240 H   0  0  0  0  0  0  0  0  0  0  0  0
   18.0830   -0.1349   13.8932 H   0  0  0  0  0  0  0  0  0  0  0  0
   18.0807   -1.1860   15.3153 H   0  0  0  0  0  0  0  0  0  0  0  0
   18.0296   -2.1780   12.5477 H   0  0  0  0  0  0  0  0  0  0  0  0
   16.8686   -4.0686   13.4714 H   0  0  0  0  0  0  0  0  0  0  0  0
   15.1804   -2.3369   13.1012 H   0  0  0  0  0  0  0  0  0  0  0  0
   15.9363   -0.9743   12.2763 H   0  0  0  0  0  0  0  0  0  0  0  0
   13.5932   -0.2096   14.2246 H   0  0  0  0  0  0  0  0  0  0  0  0
  1  2  2  0
  2  3  1  0
  2  4  1  0
  4  5  1  0
  5  6  1  0
  6  7  2  0
  7  8  1  0
  8  9  2  0
  9 10  1  0
  9 11  1  0
 11 12  1  0
 12 13  1  0
 13 14  2  0
 14 15  1  0
 15 16  2  0
 16 17  1  0
 17 18  2  0
 12 19  1  0
 19 20  1  0
 20 21  1  0
 21 22  1  0
 21 23  1  0
 11 24  2  0
 24  6  1  0
 18 13  1  0
 23 19  1  0
  3 25  1  0
  4 26  1  0
  4 27  1  0
  7 28  1  0
  8 29  1  0
 12 30  1  0
 14 31  1  0
 15 32  1  0
 16 33  1  0
 17 34  1  0
 18 35  1  0
 20 36  1  0
 20 37  1  0
 21 38  1  0
 22 39  1  0
 23 40  1  0
 23 41  1  0
 24 42  1  0
M  END
>  <Energy>  (456) 
94.554533887836286

>  <compound_id>  (456) 
3443

>  <target_id>  (456) 
1

>  <reference_id>  (456) 
117

>  <inspiration_ids>  (456) 
[117, 97]

>  <energy_score>  (456) 
-22.12485303742011

>  <distance_score>  (456) 
1.9761444618940724

>  <path>  (456) 
/opt/xchem-fragalysis-2/maxwin/BulkDock/SCRATCH/505734/C3443-P117/C3443-P117.minimised.mol

>  <scratch_subdir>  (456) 
/opt/xchem-fragalysis-2/maxwin/BulkDock/SCRATCH/505734/C3443-P117

>  <fragmenstein_runtime>  (456) 
9.006882429122925

>  <fragmenstein_outcome>  (456) 
too moved

>  <fragmenstein_mode>  (456) 
expansion

>  <fragmenstein_error>  (456) 


$$$$
C3443-P97
     RDKit          3D

 42 44  0  0  0  0  0  0  0  0999 V2000
   11.0684    2.5846   13.8189 O   0  0  0  0  0  0  0  0  0  0  0  0
   10.7996    1.3929   13.8428 C   0  0  0  0  0  0  0  0  0  0  0  0
   10.3950    0.7051   12.7522 O   0  0  0  0  0  0  0  0  0  0  0  0
   10.8321    0.5374   15.0878 C   0  0  0  0  0  0  0  0  0  0  0  0
   10.7779   -0.8389   14.6965 O   0  0  0  0  0  0  0  0  0  0  0  0
   11.8214   -1.6105   15.0839 C   0  0  0  0  0  0  0  0  0  0  0  0
   11.5206   -2.8810   15.5505 C   0  0  0  0  0  0  0  0  0  0  0  0
   12.4831   -3.6200   16.2241 C   0  0  0  0  0  0  0  0  0  0  0  0
   13.7791   -3.1370   16.2905 C   0  0  0  0  0  0  0  0  0  0  0  0
   14.6742   -3.8416   16.9968 F   0  0  0  0  0  0  0  0  0  0  0  0
   14.1405   -1.9607   15.6153 C   0  0  0  0  0  0  0  0  0  0  0  0
   15.5785   -1.4561   15.6295 C   0  0  0  0  0  0  0  0  0  0  0  0
   15.6835   -0.5734   16.8742 C   0  0  0  0  0  0  0  0  0  0  0  0
   16.2092   -1.0929   18.0717 C   0  0  0  0  0  0  0  0  0  0  0  0
   16.0775   -0.3983   19.2681 C   0  0  0  0  0  0  0  0  0  0  0  0
   15.4179    0.8232   19.2801 C   0  0  0  0  0  0  0  0  0  0  0  0
   14.9184    1.3619   18.0980 C   0  0  0  0  0  0  0  0  0  0  0  0
   15.0562    0.6762   16.8997 C   0  0  0  0  0  0  0  0  0  0  0  0
   15.9654   -0.7450   14.3729 N   0  0  0  0  0  0  0  0  0  0  0  0
   17.4378   -0.8453   14.1717 C   0  0  0  0  0  0  0  0  0  0  0  0
   17.2321   -2.1048   13.2973 C   0  0  0  0  0  0  0  0  0  0  0  0
   17.4080   -3.3834   13.9501 O   0  0  0  0  0  0  0  0  0  0  0  0
   15.7908   -1.5998   13.1561 C   0  0  0  0  0  0  0  0  0  0  0  0
   13.1328   -1.1890   15.0281 C   0  0  0  0  0  0  0  0  0  0  0  0
   10.1862   -0.2396   13.0060 H   0  0  0  0  0  0  0  0  0  0  0  0
    9.9258    0.7500   15.6640 H   0  0  0  0  0  0  0  0  0  0  0  0
   11.7035    0.7998   15.6958 H   0  0  0  0  0  0  0  0  0  0  0  0
   10.5242   -3.2793   15.4218 H   0  0  0  0  0  0  0  0  0  0  0  0
   12.2360   -4.5703   16.6863 H   0  0  0  0  0  0  0  0  0  0  0  0
   16.2245   -2.3296   15.7815 H   0  0  0  0  0  0  0  0  0  0  0  0
   16.6790   -2.0752   18.0798 H   0  0  0  0  0  0  0  0  0  0  0  0
   16.4705   -0.8183   20.1900 H   0  0  0  0  0  0  0  0  0  0  0  0
   15.3084    1.3685   20.2142 H   0  0  0  0  0  0  0  0  0  0  0  0
   14.4265    2.3314   18.1128 H   0  0  0  0  0  0  0  0  0  0  0  0
   14.6580    1.1182   15.9903 H   0  0  0  0  0  0  0  0  0  0  0  0
   17.8524    0.0066   13.6180 H   0  0  0  0  0  0  0  0  0  0  0  0
   18.0481   -0.9827   15.0711 H   0  0  0  0  0  0  0  0  0  0  0  0
   17.7981   -2.0929   12.3598 H   0  0  0  0  0  0  0  0  0  0  0  0
   16.8736   -4.0132   13.4234 H   0  0  0  0  0  0  0  0  0  0  0  0
   15.0193   -2.3728   13.1809 H   0  0  0  0  0  0  0  0  0  0  0  0
   15.6249   -1.0087   12.2460 H   0  0  0  0  0  0  0  0  0  0  0  0
   13.3877   -0.2496   14.5443 H   0  0  0  0  0  0  0  0  0  0  0  0
  1  2  2  0
  2  3  1  0
  2  4  1  0
  4  5  1  0
  5  6  1  0
  6  7  2  0
  7  8  1  0
  8  9  2  0
  9 10  1  0
  9 11  1  0
 11 12  1  0
 12 13  1  0
 13 14  2  0
 14 15  1  0
 15 16  2  0
 16 17  1  0
 17 18  2  0
 12 19  1  0
 19 20  1  0
 20 21  1  0
 21 22  1  0
 21 23  1  0
 11 24  2  0
 24  6  1  0
 18 13  1  0
 23 19  1  0
  3 25  1  0
  4 26  1  0
  4 27  1  0
  7 28  1  0
  8 29  1  0
 12 30  1  0
 14 31  1  0
 15 32  1  0
 16 33  1  0
 17 34  1  0
 18 35  1  0
 20 36  1  0
 20 37  1  0
 21 38  1  0
 22 39  1  0
 23 40  1  0
 23 41  1  0
 24 42  1  0
M  END
>  <Energy>  (457) 
93.865529110028007

>  <compound_id>  (457) 
3443

>  <target_id>  (457) 
1

>  <reference_id>  (457) 
97

>  <inspiration_ids>  (457) 
[117, 97]

>  <energy_score>  (457) 
-22.813857815227664

>  <distance_score>  (457) 
1.9616456484989664

>  <path>  (457) 
/opt/xchem-fragalysis-2/maxwin/BulkDock/SCRATCH/505734/C3443-P97/C3443-P97.minimised.mol

>  <scratch_subdir>  (457) 
/opt/xchem-fragalysis-2/maxwin/BulkDock/SCRATCH/505734/C3443-P97

>  <fragmenstein_runtime>  (457) 
8.481813430786133

>  <fragmenstein_outcome>  (457) 
too moved

>  <fragmenstein_mode>  (457) 
expansion

>  <fragmenstein_error>  (457) 


$$$$
C3444-P117
     RDKit          3D

 36 37  0  0  0  0  0  0  0  0999 V2000
   16.0938   -4.4848   17.5363 C   0  0  0  0  0  0  0  0  0  0  0  0
   15.9090   -3.0491   17.3023 N   0  0  0  0  0  0  0  0  0  0  0  0
   17.0830   -2.4099   16.6104 C   0  0  0  0  0  0  0  0  0  0  0  0
   17.9552   -1.7141   17.6556 C   0  0  0  0  0  0  0  0  0  0  0  0
   19.0499   -1.2180   17.4384 O   0  0  0  0  0  0  0  0  0  0  0  0
   17.3606   -1.7004   18.8792 O   0  0  0  0  0  0  0  0  0  0  0  0
   14.6658   -2.6353   16.8109 C   0  0  0  0  0  0  0  0  0  0  0  0
   13.6830   -3.4798   16.3017 C   0  0  0  0  0  0  0  0  0  0  0  0
   12.4857   -2.9782   15.7978 C   0  0  0  0  0  0  0  0  0  0  0  0
   12.2370   -1.6204   15.8449 C   0  0  0  0  0  0  0  0  0  0  0  0
   11.0307   -1.2423   15.4254 F   0  0  0  0  0  0  0  0  0  0  0  0
   13.1566   -0.7386   16.4197 C   0  0  0  0  0  0  0  0  0  0  0  0
   13.0449    0.6437   16.5845 N   0  0  0  0  0  0  0  0  0  0  0  0
   12.3251    1.6639   15.9552 C   0  0  0  0  0  0  0  0  0  0  0  0
   11.6696    1.5199   14.7373 C   0  0  0  0  0  0  0  0  0  0  0  0
   10.9396    2.5833   14.1938 C   0  0  0  0  0  0  0  0  0  0  0  0
   10.8472    3.8000   14.8718 C   0  0  0  0  0  0  0  0  0  0  0  0
   11.4852    3.9604   16.0994 C   0  0  0  0  0  0  0  0  0  0  0  0
   12.2146    2.8979   16.6252 C   0  0  0  0  0  0  0  0  0  0  0  0
   12.8198    3.0309   17.8523 O   0  0  0  0  0  0  0  0  0  0  0  0
   14.3617   -1.2801   16.8737 C   0  0  0  0  0  0  0  0  0  0  0  0
   15.3073   -4.8733   18.1909 H   0  0  0  0  0  0  0  0  0  0  0  0
   17.0449   -4.6585   18.0523 H   0  0  0  0  0  0  0  0  0  0  0  0
   16.1198   -5.0405   16.5936 H   0  0  0  0  0  0  0  0  0  0  0  0
   16.7834   -1.6637   15.8663 H   0  0  0  0  0  0  0  0  0  0  0  0
   17.6891   -3.1751   16.1123 H   0  0  0  0  0  0  0  0  0  0  0  0
   16.4959   -2.1733   18.7669 H   0  0  0  0  0  0  0  0  0  0  0  0
   13.8268   -4.5569   16.2680 H   0  0  0  0  0  0  0  0  0  0  0  0
   11.7283   -3.6449   15.3977 H   0  0  0  0  0  0  0  0  0  0  0  0
   13.6266    1.0451   17.3196 H   0  0  0  0  0  0  0  0  0  0  0  0
   11.7230    0.5920   14.1750 H   0  0  0  0  0  0  0  0  0  0  0  0
   10.4410    2.4475   13.2358 H   0  0  0  0  0  0  0  0  0  0  0  0
   10.2812    4.6193   14.4378 H   0  0  0  0  0  0  0  0  0  0  0  0
   11.4226    4.9055   16.6284 H   0  0  0  0  0  0  0  0  0  0  0  0
   12.1638    3.4495   18.4507 H   0  0  0  0  0  0  0  0  0  0  0  0
   15.0936   -0.6008   17.3092 H   0  0  0  0  0  0  0  0  0  0  0  0
  1  2  1  0
  2  3  1  0
  3  4  1  0
  4  5  2  0
  4  6  1  0
  2  7  1  0
  7  8  2  0
  8  9  1  0
  9 10  2  0
 10 11  1  0
 10 12  1  0
 12 13  1  0
 13 14  1  0
 14 15  2  0
 15 16  1  0
 16 17  2  0
 17 18  1  0
 18 19  2  0
 19 20  1  0
 12 21  2  0
 21  7  1  0
 19 14  1  0
  1 22  1  0
  1 23  1  0
  1 24  1  0
  3 25  1  0
  3 26  1  0
  6 27  1  0
  8 28  1  0
  9 29  1  0
 13 30  1  0
 15 31  1  0
 16 32  1  0
 17 33  1  0
 18 34  1  0
 20 35  1  0
 21 36  1  0
M  END
>  <Energy>  (458) 
74.620218739105255

>  <compound_id>  (458) 
3444

>  <target_id>  (458) 
1

>  <reference_id>  (458) 
117

>  <inspiration_ids>  (458) 
[117, 103]

>  <energy_score>  (458) 
-42.83245000912035

>  <distance_score>  (458) 
2.231130416544064

>  <path>  (458) 
/opt/xchem-fragalysis-2/maxwin/BulkDock/SCRATCH/505734/C3444-P117/C3444-P117.minimised.mol

>  <scratch_subdir>  (458) 
/opt/xchem-fragalysis-2/maxwin/BulkDock/SCRATCH/505734/C3444-P117

>  <fragmenstein_runtime>  (458) 
4.414060592651367

>  <fragmenstein_outcome>  (458) 
too moved

>  <fragmenstein_mode>  (458) 
expansion

>  <fragmenstein_error>  (458) 


$$$$
C3444-P103
     RDKit          3D

 36 37  0  0  0  0  0  0  0  0999 V2000
   16.4182   -3.9345   16.8454 C   0  0  0  0  0  0  0  0  0  0  0  0
   16.4028   -2.4625   16.7410 N   0  0  0  0  0  0  0  0  0  0  0  0
   17.0192   -1.7582   17.8880 C   0  0  0  0  0  0  0  0  0  0  0  0
   18.4927   -2.1019   18.0633 C   0  0  0  0  0  0  0  0  0  0  0  0
   18.9515   -2.9795   18.7802 O   0  0  0  0  0  0  0  0  0  0  0  0
   19.3164   -1.3430   17.3091 O   0  0  0  0  0  0  0  0  0  0  0  0
   15.1900   -1.9866   16.2323 C   0  0  0  0  0  0  0  0  0  0  0  0
   14.7412   -2.4044   14.9772 C   0  0  0  0  0  0  0  0  0  0  0  0
   13.4466   -2.1480   14.5320 C   0  0  0  0  0  0  0  0  0  0  0  0
   12.6439   -1.3346   15.2867 C   0  0  0  0  0  0  0  0  0  0  0  0
   11.3428   -1.3029   14.9930 F   0  0  0  0  0  0  0  0  0  0  0  0
   13.1896   -0.6157   16.3468 C   0  0  0  0  0  0  0  0  0  0  0  0
   12.7211    0.6217   16.8193 N   0  0  0  0  0  0  0  0  0  0  0  0
   12.4107    1.7686   16.0497 C   0  0  0  0  0  0  0  0  0  0  0  0
   11.6031    1.7398   14.9139 C   0  0  0  0  0  0  0  0  0  0  0  0
   11.3048    2.9173   14.2155 C   0  0  0  0  0  0  0  0  0  0  0  0
   11.8126    4.1425   14.6457 C   0  0  0  0  0  0  0  0  0  0  0  0
   12.6331    4.1930   15.7686 C   0  0  0  0  0  0  0  0  0  0  0  0
   12.9363    3.0138   16.4418 C   0  0  0  0  0  0  0  0  0  0  0  0
   13.8067    3.0877   17.4979 O   0  0  0  0  0  0  0  0  0  0  0  0
   14.4052   -1.0506   16.8823 C   0  0  0  0  0  0  0  0  0  0  0  0
   15.7106   -4.2753   17.6103 H   0  0  0  0  0  0  0  0  0  0  0  0
   17.4130   -4.2985   17.1190 H   0  0  0  0  0  0  0  0  0  0  0  0
   16.1754   -4.4267   15.8981 H   0  0  0  0  0  0  0  0  0  0  0  0
   16.4997   -1.9993   18.8236 H   0  0  0  0  0  0  0  0  0  0  0  0
   16.9747   -0.6693   17.7569 H   0  0  0  0  0  0  0  0  0  0  0  0
   20.2054   -1.7198   17.4712 H   0  0  0  0  0  0  0  0  0  0  0  0
   15.4111   -2.9927   14.3532 H   0  0  0  0  0  0  0  0  0  0  0  0
   13.0565   -2.5861   13.6204 H   0  0  0  0  0  0  0  0  0  0  0  0
   13.1658    0.9193   17.6839 H   0  0  0  0  0  0  0  0  0  0  0  0
   11.1469    0.8218   14.5605 H   0  0  0  0  0  0  0  0  0  0  0  0
   10.6606    2.8664   13.3402 H   0  0  0  0  0  0  0  0  0  0  0  0
   11.5715    5.0529   14.1048 H   0  0  0  0  0  0  0  0  0  0  0  0
   13.0433    5.1377   16.1104 H   0  0  0  0  0  0  0  0  0  0  0  0
   14.5429    2.5028   17.2444 H   0  0  0  0  0  0  0  0  0  0  0  0
   14.7573   -0.5850   17.7958 H   0  0  0  0  0  0  0  0  0  0  0  0
  1  2  1  0
  2  3  1  0
  3  4  1  0
  4  5  2  0
  4  6  1  0
  2  7  1  0
  7  8  2  0
  8  9  1  0
  9 10  2  0
 10 11  1  0
 10 12  1  0
 12 13  1  0
 13 14  1  0
 14 15  2  0
 15 16  1  0
 16 17  2  0
 17 18  1  0
 18 19  2  0
 19 20  1  0
 12 21  2  0
 21  7  1  0
 19 14  1  0
  1 22  1  0
  1 23  1  0
  1 24  1  0
  3 25  1  0
  3 26  1  0
  6 27  1  0
  8 28  1  0
  9 29  1  0
 13 30  1  0
 15 31  1  0
 16 32  1  0
 17 33  1  0
 18 34  1  0
 20 35  1  0
 21 36  1  0
M  END
>  <Energy>  (459) 
96.980848820775478

>  <compound_id>  (459) 
3444

>  <target_id>  (459) 
1

>  <reference_id>  (459) 
103

>  <inspiration_ids>  (459) 
[117, 103]

>  <energy_score>  (459) 
-20.471819927451236

>  <distance_score>  (459) 
2.377350928932715

>  <path>  (459) 
/opt/xchem-fragalysis-2/maxwin/BulkDock/SCRATCH/505734/C3444-P103/C3444-P103.minimised.mol

>  <scratch_subdir>  (459) 
/opt/xchem-fragalysis-2/maxwin/BulkDock/SCRATCH/505734/C3444-P103

>  <fragmenstein_runtime>  (459) 
4.582789897918701

>  <fragmenstein_outcome>  (459) 
too moved

>  <fragmenstein_mode>  (459) 
expansion

>  <fragmenstein_error>  (459) 


$$$$
C3445-P117
     RDKit          3D

 43 44  0  0  0  0  0  0  0  0999 V2000
   16.5688    4.1193   23.9422 C   0  0  0  0  0  0  0  0  0  0  0  0
   15.2054    4.0122   23.2926 C   0  0  0  0  0  0  0  0  0  0  0  0
   14.2393    4.4895   23.7619 O   0  0  0  0  0  0  0  0  0  0  0  0
   15.3875    3.2295   22.0081 N   0  0  0  0  0  0  0  0  0  0  0  0
   15.2001    1.7261   22.2434 C   0  0  0  0  0  0  0  0  0  0  0  0
   15.9422    0.7709   21.2785 C   0  0  0  0  0  0  0  0  0  0  0  0
   15.3580    0.8635   19.9453 N   0  0  0  0  0  0  0  0  0  0  0  0
   15.4871   -0.1525   19.0186 C   0  0  0  0  0  0  0  0  0  0  0  0
   14.8566   -0.3018   17.8460 C   0  0  0  0  0  0  0  0  0  0  0  0
   14.9021   -1.3873   16.9700 N   0  0  0  0  0  0  0  0  0  0  0  0
   15.9358   -2.4495   17.1442 C   0  0  0  0  0  0  0  0  0  0  0  0
   16.1080   -3.4155   15.9776 C   0  0  0  0  0  0  0  0  0  0  0  0
   16.1738   -4.6341   16.0901 O   0  0  0  0  0  0  0  0  0  0  0  0
   16.2388   -2.8408   14.7651 O   0  0  0  0  0  0  0  0  0  0  0  0
   13.6794   -1.7904   16.3783 C   0  0  0  0  0  0  0  0  0  0  0  0
   12.9569   -0.8934   15.5670 C   0  0  0  0  0  0  0  0  0  0  0  0
   11.7317   -1.2560   15.0142 C   0  0  0  0  0  0  0  0  0  0  0  0
   11.2335   -2.5223   15.2675 C   0  0  0  0  0  0  0  0  0  0  0  0
   10.0245   -2.8587   14.8186 F   0  0  0  0  0  0  0  0  0  0  0  0
   11.9274   -3.4318   16.0446 C   0  0  0  0  0  0  0  0  0  0  0  0
   13.1347   -3.0612   16.6143 C   0  0  0  0  0  0  0  0  0  0  0  0
   14.9585    2.2312   19.6246 C   0  0  0  0  0  0  0  0  0  0  0  0
   14.4049    2.9153   20.8952 C   0  0  0  0  0  0  0  0  0  0  0  0
   16.5727    3.5273   24.8612 H   0  0  0  0  0  0  0  0  0  0  0  0
   17.3668    3.7606   23.2861 H   0  0  0  0  0  0  0  0  0  0  0  0
   16.7670    5.1686   24.1785 H   0  0  0  0  0  0  0  0  0  0  0  0
   15.7151    1.5642   23.2043 H   0  0  0  0  0  0  0  0  0  0  0  0
   14.1765    1.4087   22.5120 H   0  0  0  0  0  0  0  0  0  0  0  0
   17.0057    1.0350   21.2335 H   0  0  0  0  0  0  0  0  0  0  0  0
   15.8621   -0.2524   21.6644 H   0  0  0  0  0  0  0  0  0  0  0  0
   16.1321   -0.9487   19.3823 H   0  0  0  0  0  0  0  0  0  0  0  0
   14.1419    0.4565   17.5420 H   0  0  0  0  0  0  0  0  0  0  0  0
   16.9183   -1.9853   17.2975 H   0  0  0  0  0  0  0  0  0  0  0  0
   15.7094   -3.0396   18.0416 H   0  0  0  0  0  0  0  0  0  0  0  0
   16.2759   -3.5921   14.1301 H   0  0  0  0  0  0  0  0  0  0  0  0
   13.3657    0.0899   15.3481 H   0  0  0  0  0  0  0  0  0  0  0  0
   11.1672   -0.5740   14.3866 H   0  0  0  0  0  0  0  0  0  0  0  0
   11.5116   -4.4126   16.2403 H   0  0  0  0  0  0  0  0  0  0  0  0
   13.6193   -3.7747   17.2747 H   0  0  0  0  0  0  0  0  0  0  0  0
   14.1776    2.2518   18.8573 H   0  0  0  0  0  0  0  0  0  0  0  0
   15.8242    2.7863   19.2442 H   0  0  0  0  0  0  0  0  0  0  0  0
   14.1462    3.9324   20.5590 H   0  0  0  0  0  0  0  0  0  0  0  0
   13.4098    2.5628   21.2186 H   0  0  0  0  0  0  0  0  0  0  0  0
  1  2  1  0
  2  3  2  0
  2  4  1  0
  4  5  1  0
  5  6  1  0
  6  7  1  0
  7  8  1  0
  8  9  2  3
  9 10  1  0
 10 11  1  0
 11 12  1  0
 12 13  2  0
 12 14  1  0
 10 15  1  0
 15 16  2  0
 16 17  1  0
 17 18  2  0
 18 19  1  0
 18 20  1  0
 20 21  2  0
  7 22  1  0
 22 23  1  0
 23  4  1  0
 21 15  1  0
  1 24  1  0
  1 25  1  0
  1 26  1  0
  5 27  1  0
  5 28  1  0
  6 29  1  0
  6 30  1  0
  8 31  1  0
  9 32  1  0
 11 33  1  0
 11 34  1  0
 14 35  1  0
 16 36  1  0
 17 37  1  0
 20 38  1  0
 21 39  1  0
 22 40  1  0
 22 41  1  0
 23 42  1  0
 23 43  1  0
M  END
>  <Energy>  (460) 
189.183391197476

>  <compound_id>  (460) 
3445

>  <target_id>  (460) 
1

>  <reference_id>  (460) 
117

>  <inspiration_ids>  (460) 
[117, 106]

>  <energy_score>  (460) 
30.25636188694091

>  <distance_score>  (460) 
1.4579979603221367

>  <path>  (460) 
/opt/xchem-fragalysis-2/maxwin/BulkDock/SCRATCH/505734/C3445-P117/C3445-P117.minimised.mol

>  <scratch_subdir>  (460) 
/opt/xchem-fragalysis-2/maxwin/BulkDock/SCRATCH/505734/C3445-P117

>  <fragmenstein_runtime>  (460) 
3.477773427963257

>  <fragmenstein_outcome>  (460) 
too moved

>  <fragmenstein_mode>  (460) 
expansion

>  <fragmenstein_error>  (460) 


$$$$
C3445-P106
     RDKit          3D

 43 44  0  0  0  0  0  0  0  0999 V2000
   15.8101    2.5873   24.8476 C   0  0  0  0  0  0  0  0  0  0  0  0
   14.9044    3.1878   23.7933 C   0  0  0  0  0  0  0  0  0  0  0  0
   14.1283    4.0377   24.0320 O   0  0  0  0  0  0  0  0  0  0  0  0
   15.2301    2.4971   22.4850 N   0  0  0  0  0  0  0  0  0  0  0  0
   14.3543    1.2525   22.2808 C   0  0  0  0  0  0  0  0  0  0  0  0
   14.9303    0.1268   21.3914 C   0  0  0  0  0  0  0  0  0  0  0  0
   14.9940    0.5839   20.0071 N   0  0  0  0  0  0  0  0  0  0  0  0
   14.9072   -0.2892   18.9447 C   0  0  0  0  0  0  0  0  0  0  0  0
   15.1416   -0.0811   17.6454 C   0  0  0  0  0  0  0  0  0  0  0  0
   15.0251   -1.0284   16.6378 N   0  0  0  0  0  0  0  0  0  0  0  0
   15.8300   -0.8813   15.3969 C   0  0  0  0  0  0  0  0  0  0  0  0
   17.3173   -0.9354   15.6982 C   0  0  0  0  0  0  0  0  0  0  0  0
   18.1070   -0.0083   15.5875 O   0  0  0  0  0  0  0  0  0  0  0  0
   17.7464   -2.1471   16.1124 O   0  0  0  0  0  0  0  0  0  0  0  0
   13.7194   -1.4695   16.2835 C   0  0  0  0  0  0  0  0  0  0  0  0
   12.8069   -0.6174   15.6371 C   0  0  0  0  0  0  0  0  0  0  0  0
   11.5948   -1.1167   15.1738 C   0  0  0  0  0  0  0  0  0  0  0  0
   11.2945   -2.4546   15.3833 C   0  0  0  0  0  0  0  0  0  0  0  0
   10.1296   -2.9352   14.9467 F   0  0  0  0  0  0  0  0  0  0  0  0
   12.1559   -3.2992   16.0685 C   0  0  0  0  0  0  0  0  0  0  0  0
   13.3758   -2.8074   16.5133 C   0  0  0  0  0  0  0  0  0  0  0  0
   15.3938    1.9821   19.9177 C   0  0  0  0  0  0  0  0  0  0  0  0
   14.7303    2.7624   21.0762 C   0  0  0  0  0  0  0  0  0  0  0  0
   15.2042    2.0081   25.5494 H   0  0  0  0  0  0  0  0  0  0  0  0
   16.5710    1.9332   24.4126 H   0  0  0  0  0  0  0  0  0  0  0  0
   16.3189    3.3961   25.3796 H   0  0  0  0  0  0  0  0  0  0  0  0
   14.3399    0.7990   23.2852 H   0  0  0  0  0  0  0  0  0  0  0  0
   13.2771    1.4506   22.1373 H   0  0  0  0  0  0  0  0  0  0  0  0
   15.9366   -0.1439   21.7333 H   0  0  0  0  0  0  0  0  0  0  0  0
   14.2948   -0.7607   21.4832 H   0  0  0  0  0  0  0  0  0  0  0  0
   14.5906   -1.2869   19.2487 H   0  0  0  0  0  0  0  0  0  0  0  0
   15.5344    0.8723   17.3036 H   0  0  0  0  0  0  0  0  0  0  0  0
   15.6249   -1.6824   14.6736 H   0  0  0  0  0  0  0  0  0  0  0  0
   15.6146    0.0740   14.9008 H   0  0  0  0  0  0  0  0  0  0  0  0
   18.6924   -2.0087   16.3228 H   0  0  0  0  0  0  0  0  0  0  0  0
   13.0592    0.4249   15.4628 H   0  0  0  0  0  0  0  0  0  0  0  0
   10.8927   -0.4892   14.6337 H   0  0  0  0  0  0  0  0  0  0  0  0
   11.8748   -4.3308   16.2499 H   0  0  0  0  0  0  0  0  0  0  0  0
   14.0730   -3.4648   17.0262 H   0  0  0  0  0  0  0  0  0  0  0  0
   15.0689    2.4289   18.9715 H   0  0  0  0  0  0  0  0  0  0  0  0
   16.4854    2.0615   19.9795 H   0  0  0  0  0  0  0  0  0  0  0  0
   13.6403    2.9082   20.9737 H   0  0  0  0  0  0  0  0  0  0  0  0
   15.0762    3.7986   20.9309 H   0  0  0  0  0  0  0  0  0  0  0  0
  1  2  1  0
  2  3  2  0
  2  4  1  0
  4  5  1  0
  5  6  1  0
  6  7  1  0
  7  8  1  0
  8  9  2  3
  9 10  1  0
 10 11  1  0
 11 12  1  0
 12 13  2  0
 12 14  1  0
 10 15  1  0
 15 16  2  0
 16 17  1  0
 17 18  2  0
 18 19  1  0
 18 20  1  0
 20 21  2  0
  7 22  1  0
 22 23  1  0
 23  4  1  0
 21 15  1  0
  1 24  1  0
  1 25  1  0
  1 26  1  0
  5 27  1  0
  5 28  1  0
  6 29  1  0
  6 30  1  0
  8 31  1  0
  9 32  1  0
 11 33  1  0
 11 34  1  0
 14 35  1  0
 16 36  1  0
 17 37  1  0
 20 38  1  0
 21 39  1  0
 22 40  1  0
 22 41  1  0
 23 42  1  0
 23 43  1  0
M  END
>  <Energy>  (461) 
190.38836025588859

>  <compound_id>  (461) 
3445

>  <target_id>  (461) 
1

>  <reference_id>  (461) 
106

>  <inspiration_ids>  (461) 
[117, 106]

>  <energy_score>  (461) 
31.461330945351563

>  <distance_score>  (461) 
1.6016482837673893

>  <path>  (461) 
/opt/xchem-fragalysis-2/maxwin/BulkDock/SCRATCH/505734/C3445-P106/C3445-P106.minimised.mol

>  <scratch_subdir>  (461) 
/opt/xchem-fragalysis-2/maxwin/BulkDock/SCRATCH/505734/C3445-P106

>  <fragmenstein_runtime>  (461) 
3.4004387855529785

>  <fragmenstein_outcome>  (461) 
too moved

>  <fragmenstein_mode>  (461) 
expansion

>  <fragmenstein_error>  (461) 


$$$$
C3446-P117
     RDKit          3D

 35 36  0  0  0  0  0  0  0  0999 V2000
   16.3752    1.3099   11.7006 C   0  0  0  0  0  0  0  0  0  0  0  0
   15.1180    1.9035   12.3260 C   0  0  0  0  0  0  0  0  0  0  0  0
   13.9363    1.4340   11.5720 N   0  0  0  0  0  0  0  0  0  0  0  0
   15.0254    1.5587   13.7746 C   0  0  0  0  0  0  0  0  0  0  0  0
   14.0480    0.9784   14.4322 N   0  0  0  0  0  0  0  0  0  0  0  0
   14.5369    0.9693   15.7178 C   0  0  0  0  0  0  0  0  0  0  0  0
   13.7768    0.4454   16.8767 C   0  0  0  0  0  0  0  0  0  0  0  0
   13.0635   -0.8013   16.4030 C   0  0  0  0  0  0  0  0  0  0  0  0
   11.7628   -0.6897   15.8825 C   0  0  0  0  0  0  0  0  0  0  0  0
   11.0732   -1.8081   15.4646 C   0  0  0  0  0  0  0  0  0  0  0  0
    9.7755   -1.6987   15.1668 F   0  0  0  0  0  0  0  0  0  0  0  0
   11.6716   -3.0469   15.5075 C   0  0  0  0  0  0  0  0  0  0  0  0
   12.9663   -3.1742   16.0136 C   0  0  0  0  0  0  0  0  0  0  0  0
   13.6744   -2.0573   16.4506 C   0  0  0  0  0  0  0  0  0  0  0  0
   14.9299   -2.1016   16.9854 O   0  0  0  0  0  0  0  0  0  0  0  0
   15.7656   -3.1570   16.5184 C   0  0  0  0  0  0  0  0  0  0  0  0
   17.2177   -2.9179   16.8853 C   0  0  0  0  0  0  0  0  0  0  0  0
   18.0542   -3.7904   17.0685 O   0  0  0  0  0  0  0  0  0  0  0  0
   17.5686   -1.6189   16.9460 O   0  0  0  0  0  0  0  0  0  0  0  0
   15.7353    1.5534   15.8652 N   0  0  0  0  0  0  0  0  0  0  0  0
   16.0651    1.9430   14.5694 O   0  0  0  0  0  0  0  0  0  0  0  0
   16.3934    0.2169   11.7875 H   0  0  0  0  0  0  0  0  0  0  0  0
   16.4428    1.5653   10.6369 H   0  0  0  0  0  0  0  0  0  0  0  0
   17.2791    1.6936   12.1873 H   0  0  0  0  0  0  0  0  0  0  0  0
   15.1592    2.9947   12.2314 H   0  0  0  0  0  0  0  0  0  0  0  0
   13.8478    0.4274   11.7325 H   0  0  0  0  0  0  0  0  0  0  0  0
   13.1077    1.8169   12.0348 H   0  0  0  0  0  0  0  0  0  0  0  0
   13.0564    1.1993   17.2123 H   0  0  0  0  0  0  0  0  0  0  0  0
   14.4254    0.2289   17.7326 H   0  0  0  0  0  0  0  0  0  0  0  0
   11.2696    0.2766   15.8170 H   0  0  0  0  0  0  0  0  0  0  0  0
   11.1003   -3.9164   15.2052 H   0  0  0  0  0  0  0  0  0  0  0  0
   13.3797   -4.1743   16.0989 H   0  0  0  0  0  0  0  0  0  0  0  0
   15.4646   -4.0937   17.0006 H   0  0  0  0  0  0  0  0  0  0  0  0
   15.7200   -3.2470   15.4267 H   0  0  0  0  0  0  0  0  0  0  0  0
   18.5187   -1.6230   17.1811 H   0  0  0  0  0  0  0  0  0  0  0  0
  1  2  1  0
  2  3  1  0
  2  4  1  0
  4  5  2  0
  5  6  1  0
  6  7  1  0
  7  8  1  0
  8  9  2  0
  9 10  1  0
 10 11  1  0
 10 12  2  0
 12 13  1  0
 13 14  2  0
 14 15  1  0
 15 16  1  0
 16 17  1  0
 17 18  2  0
 17 19  1  0
  6 20  2  0
 20 21  1  0
 21  4  1  0
 14  8  1  0
  1 22  1  0
  1 23  1  0
  1 24  1  0
  2 25  1  0
  3 26  1  0
  3 27  1  0
  7 28  1  0
  7 29  1  0
  9 30  1  0
 12 31  1  0
 13 32  1  0
 16 33  1  0
 16 34  1  0
 19 35  1  0
M  END
>  <Energy>  (462) 
68.338519104227757

>  <compound_id>  (462) 
3446

>  <target_id>  (462) 
1

>  <reference_id>  (462) 
117

>  <inspiration_ids>  (462) 
[117, 111]

>  <energy_score>  (462) 
-41.936690448317705

>  <distance_score>  (462) 
2.5128522604990158

>  <path>  (462) 
/opt/xchem-fragalysis-2/maxwin/BulkDock/SCRATCH/505734/C3446-P117/C3446-P117.minimised.mol

>  <scratch_subdir>  (462) 
/opt/xchem-fragalysis-2/maxwin/BulkDock/SCRATCH/505734/C3446-P117

>  <fragmenstein_runtime>  (462) 
30.928877353668213

>  <fragmenstein_outcome>  (462) 
too moved

>  <fragmenstein_mode>  (462) 
expansion

>  <fragmenstein_error>  (462) 


$$$$
C3446-P111
     RDKit          3D

 35 36  0  0  0  0  0  0  0  0999 V2000
   16.4194    1.5918   11.6560 C   0  0  0  0  0  0  0  0  0  0  0  0
   15.1069    1.9676   12.3344 C   0  0  0  0  0  0  0  0  0  0  0  0
   13.9960    1.4034   11.5470 N   0  0  0  0  0  0  0  0  0  0  0  0
   15.0588    1.5210   13.7596 C   0  0  0  0  0  0  0  0  0  0  0  0
   14.0166    1.1743   14.4823 N   0  0  0  0  0  0  0  0  0  0  0  0
   14.5876    0.9335   15.7068 C   0  0  0  0  0  0  0  0  0  0  0  0
   13.8173    0.4431   16.8698 C   0  0  0  0  0  0  0  0  0  0  0  0
   13.1178   -0.8109   16.4020 C   0  0  0  0  0  0  0  0  0  0  0  0
   11.8283   -0.7176   15.8505 C   0  0  0  0  0  0  0  0  0  0  0  0
   11.1388   -1.8519   15.4685 C   0  0  0  0  0  0  0  0  0  0  0  0
    9.8459   -1.7506   15.1484 F   0  0  0  0  0  0  0  0  0  0  0  0
   11.7242   -3.0930   15.5822 C   0  0  0  0  0  0  0  0  0  0  0  0
   13.0075   -3.2042   16.1145 C   0  0  0  0  0  0  0  0  0  0  0  0
   13.7124   -2.0690   16.5000 C   0  0  0  0  0  0  0  0  0  0  0  0
   14.9503   -2.2020   17.0660 O   0  0  0  0  0  0  0  0  0  0  0  0
   15.9707   -2.2764   16.0680 C   0  0  0  0  0  0  0  0  0  0  0  0
   16.2605   -3.6687   15.5271 C   0  0  0  0  0  0  0  0  0  0  0  0
   15.9745   -4.7424   16.0338 O   0  0  0  0  0  0  0  0  0  0  0  0
   16.8727   -3.6065   14.3230 O   0  0  0  0  0  0  0  0  0  0  0  0
   15.9038    1.1790   15.7738 N   0  0  0  0  0  0  0  0  0  0  0  0
   16.2209    1.5709   14.4751 O   0  0  0  0  0  0  0  0  0  0  0  0
   16.5871    0.5082   11.6718 H   0  0  0  0  0  0  0  0  0  0  0  0
   16.4305    1.9204   10.6104 H   0  0  0  0  0  0  0  0  0  0  0  0
   17.2733    2.0661   12.1529 H   0  0  0  0  0  0  0  0  0  0  0  0
   15.0031    3.0593   12.3307 H   0  0  0  0  0  0  0  0  0  0  0  0
   13.1497    1.4363   12.1220 H   0  0  0  0  0  0  0  0  0  0  0  0
   13.8210    1.9951   10.7383 H   0  0  0  0  0  0  0  0  0  0  0  0
   13.0932    1.2033   17.1807 H   0  0  0  0  0  0  0  0  0  0  0  0
   14.4547    0.2385   17.7369 H   0  0  0  0  0  0  0  0  0  0  0  0
   11.3366    0.2458   15.7415 H   0  0  0  0  0  0  0  0  0  0  0  0
   11.1497   -3.9728   15.3199 H   0  0  0  0  0  0  0  0  0  0  0  0
   13.4339   -4.1928   16.2669 H   0  0  0  0  0  0  0  0  0  0  0  0
   16.8960   -1.9123   16.5272 H   0  0  0  0  0  0  0  0  0  0  0  0
   15.7404   -1.6207   15.2195 H   0  0  0  0  0  0  0  0  0  0  0  0
   16.7727   -4.5044   13.9284 H   0  0  0  0  0  0  0  0  0  0  0  0
  1  2  1  0
  2  3  1  0
  2  4  1  0
  4  5  2  0
  5  6  1  0
  6  7  1  0
  7  8  1  0
  8  9  2  0
  9 10  1  0
 10 11  1  0
 10 12  2  0
 12 13  1  0
 13 14  2  0
 14 15  1  0
 15 16  1  0
 16 17  1  0
 17 18  2  0
 17 19  1  0
  6 20  2  0
 20 21  1  0
 21  4  1  0
 14  8  1  0
  1 22  1  0
  1 23  1  0
  1 24  1  0
  2 25  1  0
  3 26  1  0
  3 27  1  0
  7 28  1  0
  7 29  1  0
  9 30  1  0
 12 31  1  0
 13 32  1  0
 16 33  1  0
 16 34  1  0
 19 35  1  0
M  END
>  <Energy>  (463) 
70.37064359437376

>  <compound_id>  (463) 
3446

>  <target_id>  (463) 
1

>  <reference_id>  (463) 
111

>  <inspiration_ids>  (463) 
[117, 111]

>  <energy_score>  (463) 
-39.904565958171304

>  <distance_score>  (463) 
3.084700372998917

>  <path>  (463) 
/opt/xchem-fragalysis-2/maxwin/BulkDock/SCRATCH/505734/C3446-P111/C3446-P111.minimised.mol

>  <scratch_subdir>  (463) 
/opt/xchem-fragalysis-2/maxwin/BulkDock/SCRATCH/505734/C3446-P111

>  <fragmenstein_runtime>  (463) 
30.61053705215454

>  <fragmenstein_outcome>  (463) 
too moved

>  <fragmenstein_mode>  (463) 
expansion

>  <fragmenstein_error>  (463) 


$$$$
C3447-P117
     RDKit          3D

 31 31  0  0  0  0  0  0  0  0999 V2000
   15.0875    0.4190   17.8511 C   0  0  0  0  0  0  0  0  0  0  0  0
   14.7186   -0.0577   16.5090 N   0  0  0  0  0  0  0  0  0  0  0  0
   13.8239   -1.1581   16.5586 C   0  0  0  0  0  0  0  0  0  0  0  0
   14.1812   -2.3079   17.2721 C   0  0  0  0  0  0  0  0  0  0  0  0
   13.3662   -3.4287   17.3003 C   0  0  0  0  0  0  0  0  0  0  0  0
   13.7499   -4.5342   18.1934 N   0  0  0  0  0  0  0  0  0  0  0  0
   13.4723   -4.4693   19.7305 S   0  0  0  0  0  6  0  0  0  0  0  0
   14.4364   -3.1773   20.4654 C   0  0  0  0  0  0  0  0  0  0  0  0
   13.6164   -5.6016   20.6286 O   0  0  0  0  0  0  0  0  0  0  0  0
   12.2425   -3.4624   16.4788 C   0  0  0  0  0  0  0  0  0  0  0  0
   11.8806   -2.3336   15.7228 C   0  0  0  0  0  0  0  0  0  0  0  0
   12.6389   -1.1634   15.8060 C   0  0  0  0  0  0  0  0  0  0  0  0
   12.2339   -0.1169   15.0255 O   0  0  0  0  0  0  0  0  0  0  0  0
   12.0434    1.1265   15.6858 C   0  0  0  0  0  0  0  0  0  0  0  0
   12.7842    2.2188   14.9399 C   0  0  0  0  0  0  0  0  0  0  0  0
   12.2603    3.2384   14.5120 O   0  0  0  0  0  0  0  0  0  0  0  0
   14.1122    1.9747   14.8290 O   0  0  0  0  0  0  0  0  0  0  0  0
   15.6122    1.3738   17.7458 H   0  0  0  0  0  0  0  0  0  0  0  0
   15.7656   -0.2718   18.3619 H   0  0  0  0  0  0  0  0  0  0  0  0
   14.2020    0.5942   18.4717 H   0  0  0  0  0  0  0  0  0  0  0  0
   15.5774   -0.4102   16.0609 H   0  0  0  0  0  0  0  0  0  0  0  0
   15.1253   -2.3495   17.8065 H   0  0  0  0  0  0  0  0  0  0  0  0
   12.1903   -4.0778   19.8755 H   0  0  0  0  0  0  0  0  0  0  0  0
   15.4936   -3.3915   20.2961 H   0  0  0  0  0  0  0  0  0  0  0  0
   14.2315   -3.1679   21.5382 H   0  0  0  0  0  0  0  0  0  0  0  0
   14.1647   -2.2143   20.0378 H   0  0  0  0  0  0  0  0  0  0  0  0
   11.6461   -4.3684   16.4288 H   0  0  0  0  0  0  0  0  0  0  0  0
   11.0105   -2.3738   15.0686 H   0  0  0  0  0  0  0  0  0  0  0  0
   12.3648    1.1456   16.7300 H   0  0  0  0  0  0  0  0  0  0  0  0
   10.9731    1.3578   15.6583 H   0  0  0  0  0  0  0  0  0  0  0  0
   14.3325    1.1211   15.2837 H   0  0  0  0  0  0  0  0  0  0  0  0
  1  2  1  0
  2  3  1  0
  3  4  2  0
  4  5  1  0
  5  6  1  0
  6  7  2  0
  7  8  1  0
  7  9  2  0
  5 10  2  0
 10 11  1  0
 11 12  2  0
 12 13  1  0
 13 14  1  0
 14 15  1  0
 15 16  2  0
 15 17  1  0
 12  3  1  0
  1 18  1  0
  1 19  1  0
  1 20  1  0
  2 21  1  0
  4 22  1  0
  7 23  1  0
  8 24  1  0
  8 25  1  0
  8 26  1  0
 10 27  1  0
 11 28  1  0
 14 29  1  0
 14 30  1  0
 17 31  1  0
M  END
>  <Energy>  (464) 
17.09811755323139

>  <compound_id>  (464) 
3447

>  <target_id>  (464) 
1

>  <reference_id>  (464) 
117

>  <inspiration_ids>  (464) 
[117, 113]

>  <energy_score>  (464) 
-32.5257146271141

>  <distance_score>  (464) 
1.8474191191157157

>  <path>  (464) 
/opt/xchem-fragalysis-2/maxwin/BulkDock/SCRATCH/505734/C3447-P117/C3447-P117.minimised.mol

>  <scratch_subdir>  (464) 
/opt/xchem-fragalysis-2/maxwin/BulkDock/SCRATCH/505734/C3447-P117

>  <fragmenstein_runtime>  (464) 
1.7714710235595703

>  <fragmenstein_outcome>  (464) 
too moved

>  <fragmenstein_mode>  (464) 
expansion

>  <fragmenstein_error>  (464) 


$$$$
C3447-P113
     RDKit          3D

 31 31  0  0  0  0  0  0  0  0999 V2000
   15.5363    0.2249   17.7691 C   0  0  0  0  0  0  0  0  0  0  0  0
   14.5302    0.1375   16.7243 N   0  0  0  0  0  0  0  0  0  0  0  0
   13.7021   -0.9875   16.6582 C   0  0  0  0  0  0  0  0  0  0  0  0
   14.0410   -2.1585   17.3448 C   0  0  0  0  0  0  0  0  0  0  0  0
   13.2304   -3.2836   17.3393 C   0  0  0  0  0  0  0  0  0  0  0  0
   13.5204   -4.3667   18.3126 N   0  0  0  0  0  0  0  0  0  0  0  0
   13.5619   -3.9326   19.8152 S   0  0  0  0  0  6  0  0  0  0  0  0
   13.7119   -5.3498   20.8499 C   0  0  0  0  0  0  0  0  0  0  0  0
   14.4936   -2.9484   20.3383 O   0  0  0  0  0  0  0  0  0  0  0  0
   12.1367   -3.3112   16.4838 C   0  0  0  0  0  0  0  0  0  0  0  0
   11.7987   -2.1734   15.7344 C   0  0  0  0  0  0  0  0  0  0  0  0
   12.5377   -0.9900   15.8687 C   0  0  0  0  0  0  0  0  0  0  0  0
   12.0304    0.0713   15.1647 O   0  0  0  0  0  0  0  0  0  0  0  0
   12.2001    1.3822   15.6859 C   0  0  0  0  0  0  0  0  0  0  0  0
   13.2948    2.1818   14.9988 C   0  0  0  0  0  0  0  0  0  0  0  0
   14.1626    1.7747   14.2416 O   0  0  0  0  0  0  0  0  0  0  0  0
   13.2437    3.4961   15.3153 O   0  0  0  0  0  0  0  0  0  0  0  0
   15.1022    0.0732   18.7632 H   0  0  0  0  0  0  0  0  0  0  0  0
   15.9699    1.2301   17.7549 H   0  0  0  0  0  0  0  0  0  0  0  0
   16.3541   -0.4836   17.6018 H   0  0  0  0  0  0  0  0  0  0  0  0
   14.9258    0.3120   15.7931 H   0  0  0  0  0  0  0  0  0  0  0  0
   14.9431   -2.1993   17.9469 H   0  0  0  0  0  0  0  0  0  0  0  0
   12.3302   -3.4541   20.0960 H   0  0  0  0  0  0  0  0  0  0  0  0
   14.6253   -5.8864   20.5888 H   0  0  0  0  0  0  0  0  0  0  0  0
   12.8306   -5.9714   20.7138 H   0  0  0  0  0  0  0  0  0  0  0  0
   13.7618   -5.0148   21.8882 H   0  0  0  0  0  0  0  0  0  0  0  0
   11.5283   -4.2060   16.4273 H   0  0  0  0  0  0  0  0  0  0  0  0
   10.9353   -2.2008   15.0714 H   0  0  0  0  0  0  0  0  0  0  0  0
   12.3457    1.3999   16.7700 H   0  0  0  0  0  0  0  0  0  0  0  0
   11.2575    1.9045   15.4837 H   0  0  0  0  0  0  0  0  0  0  0  0
   14.0141    3.8772   14.8444 H   0  0  0  0  0  0  0  0  0  0  0  0
  1  2  1  0
  2  3  1  0
  3  4  2  0
  4  5  1  0
  5  6  1  0
  6  7  2  0
  7  8  1  0
  7  9  2  0
  5 10  2  0
 10 11  1  0
 11 12  2  0
 12 13  1  0
 13 14  1  0
 14 15  1  0
 15 16  2  0
 15 17  1  0
 12  3  1  0
  1 18  1  0
  1 19  1  0
  1 20  1  0
  2 21  1  0
  4 22  1  0
  7 23  1  0
  8 24  1  0
  8 25  1  0
  8 26  1  0
 10 27  1  0
 11 28  1  0
 14 29  1  0
 14 30  1  0
 17 31  1  0
M  END
>  <Energy>  (465) 
13.541204561370639

>  <compound_id>  (465) 
3447

>  <target_id>  (465) 
1

>  <reference_id>  (465) 
113

>  <inspiration_ids>  (465) 
[117, 113]

>  <energy_score>  (465) 
-36.08262761897572

>  <distance_score>  (465) 
1.7920237632505092

>  <path>  (465) 
/opt/xchem-fragalysis-2/maxwin/BulkDock/SCRATCH/505734/C3447-P113/C3447-P113.minimised.mol

>  <scratch_subdir>  (465) 
/opt/xchem-fragalysis-2/maxwin/BulkDock/SCRATCH/505734/C3447-P113

>  <fragmenstein_runtime>  (465) 
1.8563141822814941

>  <fragmenstein_outcome>  (465) 
too moved

>  <fragmenstein_mode>  (465) 
expansion

>  <fragmenstein_error>  (465) 


$$$$
C3448-P117
     RDKit          3D

 34 36  0  0  0  0  0  0  0  0999 V2000
   14.5266    5.7413   16.2629 O   0  0  0  0  0  0  0  0  0  0  0  0
   13.7832    5.3361   15.3826 C   0  0  0  0  0  0  0  0  0  0  0  0
   12.5165    5.7897   15.2976 O   0  0  0  0  0  0  0  0  0  0  0  0
   14.1635    4.3546   14.2855 C   0  0  0  0  0  0  0  0  0  0  0  0
   13.1485    3.4487   13.8782 O   0  0  0  0  0  0  0  0  0  0  0  0
   12.7920    2.4445   14.7195 C   0  0  0  0  0  0  0  0  0  0  0  0
   13.4180    2.1346   15.9336 C   0  0  0  0  0  0  0  0  0  0  0  0
   13.0328    1.0230   16.6705 C   0  0  0  0  0  0  0  0  0  0  0  0
   12.0490    0.2051   16.1184 C   0  0  0  0  0  0  0  0  0  0  0  0
   11.6529   -1.0318   16.5188 N   0  0  0  0  0  0  0  0  0  0  0  0
   11.2822   -1.5563   15.3722 C   0  0  0  0  0  0  0  0  0  0  0  0
   12.0106   -2.6692   14.7128 C   0  0  0  0  0  0  0  0  0  0  0  0
   13.4719   -2.1996   14.4337 C   0  0  0  0  0  0  0  0  0  0  0  0
   14.4785   -2.6798   15.3271 O   0  0  0  0  0  0  0  0  0  0  0  0
   13.9675   -2.9702   16.6196 C   0  0  0  0  0  0  0  0  0  0  0  0
   12.8477   -3.9954   16.5420 C   0  0  0  0  0  0  0  0  0  0  0  0
   11.8353   -3.7804   15.5656 O   0  0  0  0  0  0  0  0  0  0  0  0
   10.6789   -0.5782   14.6174 N   0  0  0  0  0  0  0  0  0  0  0  0
   11.4300    0.5381   14.9178 C   0  0  0  0  0  0  0  0  0  0  0  0
   11.7406    1.6778   14.2024 C   0  0  0  0  0  0  0  0  0  0  0  0
   12.4256    6.3894   16.0677 H   0  0  0  0  0  0  0  0  0  0  0  0
   14.4228    4.9588   13.4086 H   0  0  0  0  0  0  0  0  0  0  0  0
   15.0759    3.8158   14.5668 H   0  0  0  0  0  0  0  0  0  0  0  0
   14.2334    2.7312   16.3317 H   0  0  0  0  0  0  0  0  0  0  0  0
   13.5429    0.7494   17.5870 H   0  0  0  0  0  0  0  0  0  0  0  0
   11.5228   -2.9000   13.7601 H   0  0  0  0  0  0  0  0  0  0  0  0
   13.5763   -1.1123   14.3825 H   0  0  0  0  0  0  0  0  0  0  0  0
   13.7585   -2.5019   13.4204 H   0  0  0  0  0  0  0  0  0  0  0  0
   13.6710   -2.0462   17.1162 H   0  0  0  0  0  0  0  0  0  0  0  0
   14.7888   -3.3790   17.2183 H   0  0  0  0  0  0  0  0  0  0  0  0
   13.2862   -4.9674   16.3124 H   0  0  0  0  0  0  0  0  0  0  0  0
   12.3734   -4.1003   17.5188 H   0  0  0  0  0  0  0  0  0  0  0  0
   10.2479   -0.7613   13.7176 H   0  0  0  0  0  0  0  0  0  0  0  0
   11.3007    1.9027   13.2389 H   0  0  0  0  0  0  0  0  0  0  0  0
  1  2  2  0
  2  3  1  0
  2  4  1  0
  4  5  1  0
  5  6  1  0
  6  7  2  0
  7  8  1  0
  8  9  2  0
  9 10  1  0
 10 11  2  0
 11 12  1  0
 12 13  1  0
 13 14  1  0
 14 15  1  0
 15 16  1  0
 16 17  1  0
 11 18  1  0
 18 19  1  0
 19 20  2  0
 20  6  1  0
 19  9  1  0
 17 12  1  0
  3 21  1  0
  4 22  1  0
  4 23  1  0
  7 24  1  0
  8 25  1  0
 12 26  1  0
 13 27  1  0
 13 28  1  0
 15 29  1  0
 15 30  1  0
 16 31  1  0
 16 32  1  0
 18 33  1  0
 20 34  1  0
M  END
>  <Energy>  (466) 
130.73379093986514

>  <compound_id>  (466) 
3448

>  <target_id>  (466) 
1

>  <reference_id>  (466) 
117

>  <inspiration_ids>  (466) 
[117, 118]

>  <energy_score>  (466) 
-6.61993411804815

>  <distance_score>  (466) 
3.1346304385997676

>  <path>  (466) 
/opt/xchem-fragalysis-2/maxwin/BulkDock/SCRATCH/505734/C3448-P117/C3448-P117.minimised.mol

>  <scratch_subdir>  (466) 
/opt/xchem-fragalysis-2/maxwin/BulkDock/SCRATCH/505734/C3448-P117

>  <fragmenstein_runtime>  (466) 
6.407756567001343

>  <fragmenstein_outcome>  (466) 
too moved

>  <fragmenstein_mode>  (466) 
expansion

>  <fragmenstein_error>  (466) 


$$$$
C3448-P118
     RDKit          3D

 34 36  0  0  0  0  0  0  0  0999 V2000
   14.8043    2.0172   10.0631 O   0  0  0  0  0  0  0  0  0  0  0  0
   14.0033    2.2309   10.9612 C   0  0  0  0  0  0  0  0  0  0  0  0
   12.7026    2.4207   10.6662 O   0  0  0  0  0  0  0  0  0  0  0  0
   14.3516    2.3028   12.4412 C   0  0  0  0  0  0  0  0  0  0  0  0
   13.3013    2.6066   13.3453 O   0  0  0  0  0  0  0  0  0  0  0  0
   12.5016    1.6050   13.7927 C   0  0  0  0  0  0  0  0  0  0  0  0
   11.6768    1.9983   14.8542 C   0  0  0  0  0  0  0  0  0  0  0  0
   10.8441    1.1032   15.5159 C   0  0  0  0  0  0  0  0  0  0  0  0
   10.9550   -0.2324   15.1534 C   0  0  0  0  0  0  0  0  0  0  0  0
   10.5551   -1.3431   15.8381 N   0  0  0  0  0  0  0  0  0  0  0  0
   11.5000   -2.1847   15.4523 C   0  0  0  0  0  0  0  0  0  0  0  0
   12.6284   -2.5345   16.3490 C   0  0  0  0  0  0  0  0  0  0  0  0
   13.9833   -1.9265   15.9504 C   0  0  0  0  0  0  0  0  0  0  0  0
   15.0271   -2.2337   16.8814 O   0  0  0  0  0  0  0  0  0  0  0  0
   14.6145   -3.1556   17.8905 C   0  0  0  0  0  0  0  0  0  0  0  0
   13.7876   -4.3030   17.3114 C   0  0  0  0  0  0  0  0  0  0  0  0
   12.6742   -3.9316   16.4968 O   0  0  0  0  0  0  0  0  0  0  0  0
   11.7140   -1.9777   14.1045 N   0  0  0  0  0  0  0  0  0  0  0  0
   11.7471   -0.5935   14.0632 C   0  0  0  0  0  0  0  0  0  0  0  0
   12.4972    0.2990   13.3082 C   0  0  0  0  0  0  0  0  0  0  0  0
   12.6757    2.3707    9.6869 H   0  0  0  0  0  0  0  0  0  0  0  0
   14.8784    1.3876   12.7355 H   0  0  0  0  0  0  0  0  0  0  0  0
   15.0706    3.1249   12.5354 H   0  0  0  0  0  0  0  0  0  0  0  0
   11.6940    3.0379   15.1798 H   0  0  0  0  0  0  0  0  0  0  0  0
   10.2322    1.4211   16.3494 H   0  0  0  0  0  0  0  0  0  0  0  0
   12.3826   -2.1211   17.3201 H   0  0  0  0  0  0  0  0  0  0  0  0
   13.9297   -0.8350   15.8887 H   0  0  0  0  0  0  0  0  0  0  0  0
   14.3204   -2.2960   14.9767 H   0  0  0  0  0  0  0  0  0  0  0  0
   14.0634   -2.6082   18.6589 H   0  0  0  0  0  0  0  0  0  0  0  0
   15.5153   -3.5500   18.3723 H   0  0  0  0  0  0  0  0  0  0  0  0
   14.4569   -4.8866   16.6800 H   0  0  0  0  0  0  0  0  0  0  0  0
   13.4212   -4.9360   18.1228 H   0  0  0  0  0  0  0  0  0  0  0  0
   12.3037   -2.5618   13.5306 H   0  0  0  0  0  0  0  0  0  0  0  0
   13.1269   -0.0478   12.5011 H   0  0  0  0  0  0  0  0  0  0  0  0
  1  2  2  0
  2  3  1  0
  2  4  1  0
  4  5  1  0
  5  6  1  0
  6  7  2  0
  7  8  1  0
  8  9  2  0
  9 10  1  0
 10 11  2  0
 11 12  1  0
 12 13  1  0
 13 14  1  0
 14 15  1  0
 15 16  1  0
 16 17  1  0
 11 18  1  0
 18 19  1  0
 19 20  2  0
 20  6  1  0
 19  9  1  0
 17 12  1  0
  3 21  1  0
  4 22  1  0
  4 23  1  0
  7 24  1  0
  8 25  1  0
 12 26  1  0
 13 27  1  0
 13 28  1  0
 15 29  1  0
 15 30  1  0
 16 31  1  0
 16 32  1  0
 18 33  1  0
 20 34  1  0
M  END
>  <Energy>  (467) 
135.16267493778744

>  <compound_id>  (467) 
3448

>  <target_id>  (467) 
1

>  <reference_id>  (467) 
118

>  <inspiration_ids>  (467) 
[117, 118]

>  <energy_score>  (467) 
-2.1910501201274712

>  <distance_score>  (467) 
3.296597865856607

>  <path>  (467) 
/opt/xchem-fragalysis-2/maxwin/BulkDock/SCRATCH/505734/C3448-P118/C3448-P118.minimised.mol

>  <scratch_subdir>  (467) 
/opt/xchem-fragalysis-2/maxwin/BulkDock/SCRATCH/505734/C3448-P118

>  <fragmenstein_runtime>  (467) 
6.23603630065918

>  <fragmenstein_outcome>  (467) 
too moved

>  <fragmenstein_mode>  (467) 
expansion

>  <fragmenstein_error>  (467) 


$$$$
C664-P117
     RDKit          3D

 39 40  0  0  0  0  0  0  0  0999 V2000
   15.7718    0.0993   17.1567 N   0  0  0  0  0  0  0  0  0  0  0  0
   14.4882   -0.2688   18.1633 S   0  0  0  0  0  0  0  0  0  0  0  0
   13.7253    0.9580   18.1554 O   0  0  0  0  0  0  0  0  0  0  0  0
   14.0164   -1.6374   17.6427 N   0  0  0  0  0  0  0  0  0  0  0  0
   13.6361   -1.7029   16.2398 C   0  0  0  0  0  0  0  0  0  0  0  0
   12.5971   -0.9183   15.7459 C   0  0  0  0  0  0  0  0  0  0  0  0
   12.6099   -0.5450   14.4097 C   0  0  0  0  0  0  0  0  0  0  0  0
   13.6650   -0.9586   13.6007 C   0  0  0  0  0  0  0  0  0  0  0  0
   13.8012   -0.2525   12.4410 O   0  0  0  0  0  0  0  0  0  0  0  0
   14.9771   -0.5017   11.6646 C   0  0  0  0  0  0  0  0  0  0  0  0
   15.0844    0.5810   10.6049 C   0  0  0  0  0  0  0  0  0  0  0  0
   15.8731    0.5513    9.6712 O   0  0  0  0  0  0  0  0  0  0  0  0
   14.2322    1.6168   10.8089 O   0  0  0  0  0  0  0  0  0  0  0  0
   14.5402   -1.9445   14.0494 C   0  0  0  0  0  0  0  0  0  0  0  0
   14.5242   -2.3263   15.3834 C   0  0  0  0  0  0  0  0  0  0  0  0
   15.1349   -0.4585   19.7863 C   0  0  0  0  0  0  0  0  0  0  0  0
   14.8322   -1.6111   20.5202 C   0  0  0  0  0  0  0  0  0  0  0  0
   15.2529   -1.7173   21.8403 C   0  0  0  0  0  0  0  0  0  0  0  0
   15.9785   -0.6792   22.4133 C   0  0  0  0  0  0  0  0  0  0  0  0
   16.2924    0.4658   21.6742 C   0  0  0  0  0  0  0  0  0  0  0  0
   15.8608    0.5914   20.3559 C   0  0  0  0  0  0  0  0  0  0  0  0
   16.2086    1.6671   19.5842 O   0  0  0  0  0  0  0  0  0  0  0  0
   15.8081    2.9179   20.1360 C   0  0  0  0  0  0  0  0  0  0  0  0
   16.7067    3.2869   21.0824 F   0  0  0  0  0  0  0  0  0  0  0  0
   15.9068    3.8341   19.1402 F   0  0  0  0  0  0  0  0  0  0  0  0
   16.5138   -0.5491   17.3833 H   0  0  0  0  0  0  0  0  0  0  0  0
   16.0877    1.0182   17.4491 H   0  0  0  0  0  0  0  0  0  0  0  0
   11.8791   -0.4637   16.4167 H   0  0  0  0  0  0  0  0  0  0  0  0
   11.8747    0.1657   14.0404 H   0  0  0  0  0  0  0  0  0  0  0  0
   15.8808   -0.4310   12.2795 H   0  0  0  0  0  0  0  0  0  0  0  0
   14.8876   -1.4707   11.1638 H   0  0  0  0  0  0  0  0  0  0  0  0
   13.6746    1.4271   11.5971 H   0  0  0  0  0  0  0  0  0  0  0  0
   15.3240   -2.3519   13.4172 H   0  0  0  0  0  0  0  0  0  0  0  0
   15.3018   -2.9756   15.7728 H   0  0  0  0  0  0  0  0  0  0  0  0
   14.2446   -2.4183   20.0874 H   0  0  0  0  0  0  0  0  0  0  0  0
   14.9973   -2.5985   22.4241 H   0  0  0  0  0  0  0  0  0  0  0  0
   16.3115   -0.7625   23.4460 H   0  0  0  0  0  0  0  0  0  0  0  0
   16.8981    1.2364   22.1452 H   0  0  0  0  0  0  0  0  0  0  0  0
   14.7885    2.9189   20.5378 H   0  0  0  0  0  0  0  0  0  0  0  0
  1  2  1  0
  2  3  2  0
  2  4  2  0
  4  5  1  0
  5  6  2  0
  6  7  1  0
  7  8  2  0
  8  9  1  0
  9 10  1  0
 10 11  1  0
 11 12  2  0
 11 13  1  0
  8 14  1  0
 14 15  2  0
  2 16  1  0
 16 17  2  0
 17 18  1  0
 18 19  2  0
 19 20  1  0
 20 21  2  0
 21 22  1  0
 22 23  1  0
 23 24  1  0
 23 25  1  0
 15  5  1  0
 21 16  1  0
  1 26  1  0
  1 27  1  0
  6 28  1  0
  7 29  1  0
 10 30  1  0
 10 31  1  0
 13 32  1  0
 14 33  1  0
 15 34  1  0
 17 35  1  0
 18 36  1  0
 19 37  1  0
 20 38  1  0
 23 39  1  0
M  END
>  <Energy>  (468) 
-52.087404779712031

>  <compound_id>  (468) 
664

>  <target_id>  (468) 
1

>  <reference_id>  (468) 
117

>  <inspiration_ids>  (468) 
[117, 120]

>  <energy_score>  (468) 
-42.75852086626096

>  <distance_score>  (468) 
2.390383941268756

>  <path>  (468) 
/opt/xchem-fragalysis-2/maxwin/BulkDock/SCRATCH/505734/C664-P117/C664-P117.minimised.mol

>  <scratch_subdir>  (468) 
/opt/xchem-fragalysis-2/maxwin/BulkDock/SCRATCH/505734/C664-P117

>  <fragmenstein_runtime>  (468) 
5.102977752685547

>  <fragmenstein_outcome>  (468) 
too moved

>  <fragmenstein_mode>  (468) 
expansion

>  <fragmenstein_error>  (468) 


$$$$
C664-P120
     RDKit          3D

 39 40  0  0  0  0  0  0  0  0999 V2000
   15.7554    0.1320   17.1770 N   0  0  0  0  0  0  0  0  0  0  0  0
   14.4540   -0.2903   18.1472 S   0  0  0  0  0  0  0  0  0  0  0  0
   13.6567    0.9095   18.0512 O   0  0  0  0  0  0  0  0  0  0  0  0
   14.0355   -1.6737   17.6194 N   0  0  0  0  0  0  0  0  0  0  0  0
   13.6648   -1.7675   16.2197 C   0  0  0  0  0  0  0  0  0  0  0  0
   12.6085   -1.0146   15.7135 C   0  0  0  0  0  0  0  0  0  0  0  0
   12.6449   -0.6128   14.3858 C   0  0  0  0  0  0  0  0  0  0  0  0
   13.7323   -0.9787   13.5954 C   0  0  0  0  0  0  0  0  0  0  0  0
   13.8818   -0.2409   12.4568 O   0  0  0  0  0  0  0  0  0  0  0  0
   15.0619   -0.4748   11.6813 C   0  0  0  0  0  0  0  0  0  0  0  0
   15.1775    0.6279   10.6428 C   0  0  0  0  0  0  0  0  0  0  0  0
   15.9914    0.6281    9.7307 O   0  0  0  0  0  0  0  0  0  0  0  0
   14.3024    1.6454   10.8413 O   0  0  0  0  0  0  0  0  0  0  0  0
   14.6250   -1.9473   14.0468 C   0  0  0  0  0  0  0  0  0  0  0  0
   14.5959   -2.3425   15.3761 C   0  0  0  0  0  0  0  0  0  0  0  0
   15.0566   -0.4397   19.7924 C   0  0  0  0  0  0  0  0  0  0  0  0
   14.8163   -1.6295   20.4934 C   0  0  0  0  0  0  0  0  0  0  0  0
   15.2060   -1.7406   21.8206 C   0  0  0  0  0  0  0  0  0  0  0  0
   15.8253   -0.6630   22.4389 C   0  0  0  0  0  0  0  0  0  0  0  0
   16.0725    0.5231   21.7362 C   0  0  0  0  0  0  0  0  0  0  0  0
   15.7032    0.6485   20.3961 C   0  0  0  0  0  0  0  0  0  0  0  0
   15.9132    1.7627   19.6302 O   0  0  0  0  0  0  0  0  0  0  0  0
   16.6046    2.8542   20.2123 C   0  0  0  0  0  0  0  0  0  0  0  0
   16.7823    3.7803   19.2368 F   0  0  0  0  0  0  0  0  0  0  0  0
   15.8300    3.4259   21.1638 F   0  0  0  0  0  0  0  0  0  0  0  0
   16.0344    1.0400   17.5372 H   0  0  0  0  0  0  0  0  0  0  0  0
   15.3394    0.3477   16.2796 H   0  0  0  0  0  0  0  0  0  0  0  0
   11.8562   -0.6023   16.3754 H   0  0  0  0  0  0  0  0  0  0  0  0
   11.8938    0.0788   14.0113 H   0  0  0  0  0  0  0  0  0  0  0  0
   14.9766   -1.4345   11.1622 H   0  0  0  0  0  0  0  0  0  0  0  0
   15.9617   -0.4142   12.3028 H   0  0  0  0  0  0  0  0  0  0  0  0
   13.7229    1.4319   11.6071 H   0  0  0  0  0  0  0  0  0  0  0  0
   15.4313   -2.3285   13.4267 H   0  0  0  0  0  0  0  0  0  0  0  0
   15.3917   -2.9629   15.7780 H   0  0  0  0  0  0  0  0  0  0  0  0
   14.2960   -2.4634   20.0260 H   0  0  0  0  0  0  0  0  0  0  0  0
   14.9926   -2.6504   22.3757 H   0  0  0  0  0  0  0  0  0  0  0  0
   16.1071   -0.7376   23.4872 H   0  0  0  0  0  0  0  0  0  0  0  0
   16.5393    1.3336   22.2881 H   0  0  0  0  0  0  0  0  0  0  0  0
   17.5852    2.5795   20.6154 H   0  0  0  0  0  0  0  0  0  0  0  0
  1  2  1  0
  2  3  2  0
  2  4  2  0
  4  5  1  0
  5  6  2  0
  6  7  1  0
  7  8  2  0
  8  9  1  0
  9 10  1  0
 10 11  1  0
 11 12  2  0
 11 13  1  0
  8 14  1  0
 14 15  2  0
  2 16  1  0
 16 17  2  0
 17 18  1  0
 18 19  2  0
 19 20  1  0
 20 21  2  0
 21 22  1  0
 22 23  1  0
 23 24  1  0
 23 25  1  0
 15  5  1  0
 21 16  1  0
  1 26  1  0
  1 27  1  0
  6 28  1  0
  7 29  1  0
 10 30  1  0
 10 31  1  0
 13 32  1  0
 14 33  1  0
 15 34  1  0
 17 35  1  0
 18 36  1  0
 19 37  1  0
 20 38  1  0
 23 39  1  0
M  END
>  <Energy>  (469) 
-49.653642075823498

>  <compound_id>  (469) 
664

>  <target_id>  (469) 
1

>  <reference_id>  (469) 
120

>  <inspiration_ids>  (469) 
[117, 120]

>  <energy_score>  (469) 
-40.32475816237203

>  <distance_score>  (469) 
2.3850804482064687

>  <path>  (469) 
/opt/xchem-fragalysis-2/maxwin/BulkDock/SCRATCH/505734/C664-P120/C664-P120.minimised.mol

>  <scratch_subdir>  (469) 
/opt/xchem-fragalysis-2/maxwin/BulkDock/SCRATCH/505734/C664-P120

>  <fragmenstein_runtime>  (469) 
5.818474531173706

>  <fragmenstein_outcome>  (469) 
too moved

>  <fragmenstein_mode>  (469) 
expansion

>  <fragmenstein_error>  (469) 


$$$$
C3452-P118
     RDKit          3D

 55 56  0  0  0  0  0  0  0  0999 V2000
   18.9036    1.6362   18.2586 C   0  0  0  0  0  0  0  0  0  0  0  0
   17.8358    0.6649   17.7495 C   0  0  0  0  0  0  0  0  0  0  0  0
   16.8159    1.4009   16.8941 C   0  0  0  0  0  0  0  0  0  0  0  0
   15.7403    0.4153   16.5251 C   0  0  0  0  0  0  0  0  0  0  0  0
   16.2703   -0.7374   15.6753 C   0  0  0  0  0  0  0  0  0  0  0  0
   16.7033   -0.3288   14.2520 C   0  0  0  0  0  0  0  0  0  0  0  0
   15.6642    0.4969   13.4651 C   0  0  0  0  0  0  0  0  0  0  0  0
   14.4932   -0.2590   13.0344 N   0  0  0  0  0  0  0  0  0  0  0  0
   13.1865    0.4157   13.2137 C   0  0  0  0  0  0  0  0  0  0  0  0
   12.7428    0.4499   14.5814 O   0  0  0  0  0  0  0  0  0  0  0  0
   12.4510   -0.7754   15.1177 C   0  0  0  0  0  0  0  0  0  0  0  0
   12.9282   -1.0227   16.3974 C   0  0  0  0  0  0  0  0  0  0  0  0
   12.9289   -2.3127   16.9143 C   0  0  0  0  0  0  0  0  0  0  0  0
   12.2323   -3.2984   16.2532 C   0  0  0  0  0  0  0  0  0  0  0  0
   12.1584   -4.5150   16.7968 F   0  0  0  0  0  0  0  0  0  0  0  0
   11.6000   -3.0273   15.0509 C   0  0  0  0  0  0  0  0  0  0  0  0
   11.7554   -1.7781   14.4591 C   0  0  0  0  0  0  0  0  0  0  0  0
   13.1335    1.8466   12.6113 C   0  0  0  0  0  0  0  0  0  0  0  0
   14.0419    2.5208   12.1492 O   0  0  0  0  0  0  0  0  0  0  0  0
   11.8786    2.3709   12.6089 O   0  0  0  0  0  0  0  0  0  0  0  0
   17.3806   -1.4661   16.4024 N   0  0  0  0  0  0  0  0  0  0  0  0
   16.8160   -2.8070   17.3063 S   0  0  0  0  0  0  0  0  0  0  0  0
   18.2799   -3.6671   17.8264 C   0  0  0  0  0  0  0  0  0  0  0  0
   16.1485   -2.2867   18.4805 O   0  0  0  0  0  0  0  0  0  0  0  0
   16.1205   -3.6828   16.3872 O   0  0  0  0  0  0  0  0  0  0  0  0
   18.4287   -0.5830   17.0469 C   0  0  0  0  0  0  0  0  0  0  0  0
   19.5495   -0.2914   16.0235 C   0  0  0  0  0  0  0  0  0  0  0  0
   20.8141   -0.2113   16.6801 O   0  0  0  0  0  0  0  0  0  0  0  0
   19.6372    1.1167   18.8836 H   0  0  0  0  0  0  0  0  0  0  0  0
   18.4462    2.4210   18.8712 H   0  0  0  0  0  0  0  0  0  0  0  0
   19.4335    2.1289   17.4373 H   0  0  0  0  0  0  0  0  0  0  0  0
   17.3087    0.3000   18.6433 H   0  0  0  0  0  0  0  0  0  0  0  0
   16.3730    2.2252   17.4663 H   0  0  0  0  0  0  0  0  0  0  0  0
   17.2797    1.8453   16.0071 H   0  0  0  0  0  0  0  0  0  0  0  0
   15.3266    0.0208   17.4595 H   0  0  0  0  0  0  0  0  0  0  0  0
   14.9350    0.9562   16.0258 H   0  0  0  0  0  0  0  0  0  0  0  0
   15.4498   -1.4437   15.5250 H   0  0  0  0  0  0  0  0  0  0  0  0
   16.9660   -1.2305   13.6829 H   0  0  0  0  0  0  0  0  0  0  0  0
   17.6169    0.2691   14.2877 H   0  0  0  0  0  0  0  0  0  0  0  0
   15.4029    1.3921   14.0364 H   0  0  0  0  0  0  0  0  0  0  0  0
   16.1608    0.8588   12.5564 H   0  0  0  0  0  0  0  0  0  0  0  0
   14.4498   -1.1721   13.4837 H   0  0  0  0  0  0  0  0  0  0  0  0
   12.4689   -0.1312   12.5966 H   0  0  0  0  0  0  0  0  0  0  0  0
   13.3498   -0.2196   16.9833 H   0  0  0  0  0  0  0  0  0  0  0  0
   13.4335   -2.5545   17.8442 H   0  0  0  0  0  0  0  0  0  0  0  0
   11.0368   -3.8032   14.5484 H   0  0  0  0  0  0  0  0  0  0  0  0
   11.3295   -1.6181   13.4809 H   0  0  0  0  0  0  0  0  0  0  0  0
   12.0408    3.2718   12.2535 H   0  0  0  0  0  0  0  0  0  0  0  0
   18.9312   -3.8122   16.9626 H   0  0  0  0  0  0  0  0  0  0  0  0
   17.9707   -4.6407   18.2151 H   0  0  0  0  0  0  0  0  0  0  0  0
   18.7827   -3.1133   18.6189 H   0  0  0  0  0  0  0  0  0  0  0  0
   18.9126   -1.1539   17.8455 H   0  0  0  0  0  0  0  0  0  0  0  0
   19.6225   -1.0998   15.2879 H   0  0  0  0  0  0  0  0  0  0  0  0
   19.3847    0.6495   15.4919 H   0  0  0  0  0  0  0  0  0  0  0  0
   21.4823   -0.0482   15.9911 H   0  0  0  0  0  0  0  0  0  0  0  0
  1  2  1  0
  2  3  1  0
  3  4  1  0
  4  5  1  0
  5  6  1  0
  6  7  1  0
  7  8  1  0
  8  9  1  0
  9 10  1  0
 10 11  1  0
 11 12  2  0
 12 13  1  0
 13 14  2  0
 14 15  1  0
 14 16  1  0
 16 17  2  0
  9 18  1  0
 18 19  2  0
 18 20  1  0
  5 21  1  0
 21 22  1  0
 22 23  1  0
 22 24  2  0
 22 25  2  0
 21 26  1  0
 26 27  1  0
 27 28  1  0
 26  2  1  0
 17 11  1  0
  1 29  1  0
  1 30  1  0
  1 31  1  0
  2 32  1  0
  3 33  1  0
  3 34  1  0
  4 35  1  0
  4 36  1  0
  5 37  1  0
  6 38  1  0
  6 39  1  0
  7 40  1  0
  7 41  1  0
  8 42  1  0
  9 43  1  0
 12 44  1  0
 13 45  1  0
 16 46  1  0
 17 47  1  0
 20 48  1  0
 23 49  1  0
 23 50  1  0
 23 51  1  0
 26 52  1  0
 27 53  1  0
 27 54  1  0
 28 55  1  0
M  END
>  <Energy>  (470) 
56.334794490426894

>  <compound_id>  (470) 
3452

>  <target_id>  (470) 
1

>  <reference_id>  (470) 
118

>  <inspiration_ids>  (470) 
[118, 8]

>  <energy_score>  (470) 
-76.9590919554669

>  <distance_score>  (470) 
1.746712412531036

>  <path>  (470) 
/opt/xchem-fragalysis-2/maxwin/BulkDock/SCRATCH/505734/C3452-P118/C3452-P118.minimised.mol

>  <scratch_subdir>  (470) 
/opt/xchem-fragalysis-2/maxwin/BulkDock/SCRATCH/505734/C3452-P118

>  <fragmenstein_runtime>  (470) 
4.750832796096802

>  <fragmenstein_outcome>  (470) 
too moved

>  <fragmenstein_mode>  (470) 
expansion

>  <fragmenstein_error>  (470) 


$$$$
C3452-P8
     RDKit          3D

 55 56  0  0  0  0  0  0  0  0999 V2000
   18.6610    1.4774   18.6843 C   0  0  0  0  0  0  0  0  0  0  0  0
   17.6973    0.4781   18.0406 C   0  0  0  0  0  0  0  0  0  0  0  0
   16.6587    1.2117   17.2105 C   0  0  0  0  0  0  0  0  0  0  0  0
   15.6797    0.1949   16.6841 C   0  0  0  0  0  0  0  0  0  0  0  0
   16.3145   -0.8792   15.8001 C   0  0  0  0  0  0  0  0  0  0  0  0
   16.7588   -0.3164   14.4308 C   0  0  0  0  0  0  0  0  0  0  0  0
   15.8691   -0.7328   13.2430 C   0  0  0  0  0  0  0  0  0  0  0  0
   14.4337   -0.7392   13.4662 N   0  0  0  0  0  0  0  0  0  0  0  0
   13.7492    0.5472   13.6909 C   0  0  0  0  0  0  0  0  0  0  0  0
   12.5611    0.4749   14.5321 O   0  0  0  0  0  0  0  0  0  0  0  0
   12.3662   -0.7362   15.1334 C   0  0  0  0  0  0  0  0  0  0  0  0
   12.8018   -0.9601   16.4298 C   0  0  0  0  0  0  0  0  0  0  0  0
   12.8530   -2.2611   16.9286 C   0  0  0  0  0  0  0  0  0  0  0  0
   12.2775   -3.2889   16.2046 C   0  0  0  0  0  0  0  0  0  0  0  0
   12.2706   -4.5248   16.7129 F   0  0  0  0  0  0  0  0  0  0  0  0
   11.6760   -3.0355   14.9823 C   0  0  0  0  0  0  0  0  0  0  0  0
   11.7613   -1.7640   14.4294 C   0  0  0  0  0  0  0  0  0  0  0  0
   13.4313    1.2239   12.3290 C   0  0  0  0  0  0  0  0  0  0  0  0
   14.2222    1.3951   11.4097 O   0  0  0  0  0  0  0  0  0  0  0  0
   12.1607    1.6583   12.1716 O   0  0  0  0  0  0  0  0  0  0  0  0
   17.4456   -1.5668   16.5349 N   0  0  0  0  0  0  0  0  0  0  0  0
   16.9088   -2.9645   17.3756 S   0  0  0  0  0  0  0  0  0  0  0  0
   18.3927   -3.7425   17.9568 C   0  0  0  0  0  0  0  0  0  0  0  0
   16.1507   -2.5232   18.5269 O   0  0  0  0  0  0  0  0  0  0  0  0
   16.3233   -3.8608   16.4000 O   0  0  0  0  0  0  0  0  0  0  0  0
   18.4107   -0.6421   17.2450 C   0  0  0  0  0  0  0  0  0  0  0  0
   19.4800   -0.1558   16.2404 C   0  0  0  0  0  0  0  0  0  0  0  0
   20.6974    0.1673   16.9086 O   0  0  0  0  0  0  0  0  0  0  0  0
   18.1192    2.1519   19.3566 H   0  0  0  0  0  0  0  0  0  0  0  0
   19.1654    2.0976   17.9366 H   0  0  0  0  0  0  0  0  0  0  0  0
   19.4205    0.9600   19.2794 H   0  0  0  0  0  0  0  0  0  0  0  0
   17.1686   -0.0101   18.8718 H   0  0  0  0  0  0  0  0  0  0  0  0
   16.1243    1.9380   17.8352 H   0  0  0  0  0  0  0  0  0  0  0  0
   17.1260    1.7822   16.4014 H   0  0  0  0  0  0  0  0  0  0  0  0
   14.9089    0.7424   16.1466 H   0  0  0  0  0  0  0  0  0  0  0  0
   15.2077   -0.2815   17.5494 H   0  0  0  0  0  0  0  0  0  0  0  0
   15.5507   -1.6367   15.6002 H   0  0  0  0  0  0  0  0  0  0  0  0
   17.7709   -0.6581   14.1881 H   0  0  0  0  0  0  0  0  0  0  0  0
   16.7995    0.7779   14.4535 H   0  0  0  0  0  0  0  0  0  0  0  0
   16.1273   -0.1295   12.3658 H   0  0  0  0  0  0  0  0  0  0  0  0
   16.1482   -1.7626   12.9850 H   0  0  0  0  0  0  0  0  0  0  0  0
   13.9647   -1.2441   12.7155 H   0  0  0  0  0  0  0  0  0  0  0  0
   14.4098    1.2580   14.1962 H   0  0  0  0  0  0  0  0  0  0  0  0
   13.1517   -0.1351   17.0349 H   0  0  0  0  0  0  0  0  0  0  0  0
   13.3139   -2.4837   17.8858 H   0  0  0  0  0  0  0  0  0  0  0  0
   11.1864   -3.8309   14.4379 H   0  0  0  0  0  0  0  0  0  0  0  0
   11.4030   -1.5814   13.4292 H   0  0  0  0  0  0  0  0  0  0  0  0
   12.1857    2.0477   11.2722 H   0  0  0  0  0  0  0  0  0  0  0  0
   19.0994   -3.8236   17.1290 H   0  0  0  0  0  0  0  0  0  0  0  0
   18.1269   -4.7436   18.3058 H   0  0  0  0  0  0  0  0  0  0  0  0
   18.8130   -3.1784   18.7894 H   0  0  0  0  0  0  0  0  0  0  0  0
   18.9650   -1.2242   17.9875 H   0  0  0  0  0  0  0  0  0  0  0  0
   19.7156   -0.9499   15.5234 H   0  0  0  0  0  0  0  0  0  0  0  0
   19.1465    0.7250   15.6844 H   0  0  0  0  0  0  0  0  0  0  0  0
   21.3365    0.4330   16.2242 H   0  0  0  0  0  0  0  0  0  0  0  0
  1  2  1  0
  2  3  1  0
  3  4  1  0
  4  5  1  0
  5  6  1  0
  6  7  1  0
  7  8  1  0
  8  9  1  0
  9 10  1  0
 10 11  1  0
 11 12  2  0
 12 13  1  0
 13 14  2  0
 14 15  1  0
 14 16  1  0
 16 17  2  0
  9 18  1  0
 18 19  2  0
 18 20  1  0
  5 21  1  0
 21 22  1  0
 22 23  1  0
 22 24  2  0
 22 25  2  0
 21 26  1  0
 26 27  1  0
 27 28  1  0
 26  2  1  0
 17 11  1  0
  1 29  1  0
  1 30  1  0
  1 31  1  0
  2 32  1  0
  3 33  1  0
  3 34  1  0
  4 35  1  0
  4 36  1  0
  5 37  1  0
  6 38  1  0
  6 39  1  0
  7 40  1  0
  7 41  1  0
  8 42  1  0
  9 43  1  0
 12 44  1  0
 13 45  1  0
 16 46  1  0
 17 47  1  0
 20 48  1  0
 23 49  1  0
 23 50  1  0
 23 51  1  0
 26 52  1  0
 27 53  1  0
 27 54  1  0
 28 55  1  0
M  END
>  <Energy>  (471) 
66.494192195460101

>  <compound_id>  (471) 
3452

>  <target_id>  (471) 
1

>  <reference_id>  (471) 
8

>  <inspiration_ids>  (471) 
[118, 8]

>  <energy_score>  (471) 
-66.79969425043419

>  <distance_score>  (471) 
1.8801220697003387

>  <path>  (471) 
/opt/xchem-fragalysis-2/maxwin/BulkDock/SCRATCH/505734/C3452-P8/C3452-P8.minimised.mol

>  <scratch_subdir>  (471) 
/opt/xchem-fragalysis-2/maxwin/BulkDock/SCRATCH/505734/C3452-P8

>  <fragmenstein_runtime>  (471) 
4.854576826095581

>  <fragmenstein_outcome>  (471) 
too moved

>  <fragmenstein_mode>  (471) 
expansion

>  <fragmenstein_error>  (471) 


$$$$
C1193-P118
     RDKit          3D

 35 35  0  0  0  0  0  0  0  0999 V2000
   15.0321   -2.8910   21.3163 C   0  0  0  0  0  0  0  0  0  0  0  0
   15.9298   -2.7075   20.1194 N   0  0  0  0  0  0  0  0  0  0  0  0
   16.8608   -2.2759   21.2031 C   0  0  0  0  0  0  0  0  0  0  0  0
   15.9396   -3.9516   19.2419 C   0  0  0  0  0  0  0  0  0  0  0  0
   16.6395   -4.8990   19.2707 O   0  0  0  0  0  0  0  0  0  0  0  0
   14.7947   -3.8107   18.2224 C   0  0  0  0  0  0  0  0  0  0  0  0
   14.8205   -2.5447   17.5761 O   0  0  0  0  0  0  0  0  0  0  0  0
   13.7703   -2.2345   16.7590 C   0  0  0  0  0  0  0  0  0  0  0  0
   13.7874   -0.9202   16.2833 C   0  0  0  0  0  0  0  0  0  0  0  0
   12.7418   -0.4440   15.4889 C   0  0  0  0  0  0  0  0  0  0  0  0
   12.7327    0.8755   15.1122 O   0  0  0  0  0  0  0  0  0  0  0  0
   13.4824    1.0780   13.9120 C   0  0  0  0  0  0  0  0  0  0  0  0
   12.5948    1.3441   12.7018 C   0  0  0  0  0  0  0  0  0  0  0  0
   11.3722    1.3407   12.6490 O   0  0  0  0  0  0  0  0  0  0  0  0
   13.3254    1.5987   11.5940 O   0  0  0  0  0  0  0  0  0  0  0  0
   11.6665   -1.2623   15.1335 C   0  0  0  0  0  0  0  0  0  0  0  0
   10.4873   -0.6981   14.6075 N   0  0  0  0  0  0  0  0  0  0  0  0
   11.6938   -2.5874   15.5705 C   0  0  0  0  0  0  0  0  0  0  0  0
   10.6929   -3.4048   15.2180 F   0  0  0  0  0  0  0  0  0  0  0  0
   12.7146   -3.0668   16.3895 C   0  0  0  0  0  0  0  0  0  0  0  0
   12.6358   -4.3310   16.8300 F   0  0  0  0  0  0  0  0  0  0  0  0
   14.7574   -1.9651   21.8443 H   0  0  0  0  0  0  0  0  0  0  0  0
   14.0758   -3.2328   20.8967 H   0  0  0  0  0  0  0  0  0  0  0  0
   15.3126   -3.7284   21.9753 H   0  0  0  0  0  0  0  0  0  0  0  0
   17.1940   -3.0735   21.8853 H   0  0  0  0  0  0  0  0  0  0  0  0
   16.6094   -1.3196   21.6857 H   0  0  0  0  0  0  0  0  0  0  0  0
   17.7843   -2.0457   20.6508 H   0  0  0  0  0  0  0  0  0  0  0  0
   14.9357   -4.5962   17.4718 H   0  0  0  0  0  0  0  0  0  0  0  0
   13.8548   -3.9698   18.7626 H   0  0  0  0  0  0  0  0  0  0  0  0
   14.5972   -0.2541   16.5725 H   0  0  0  0  0  0  0  0  0  0  0  0
   14.0983    1.9696   14.0715 H   0  0  0  0  0  0  0  0  0  0  0  0
   14.1457    0.2350   13.6781 H   0  0  0  0  0  0  0  0  0  0  0  0
   12.6807    1.7478   10.8718 H   0  0  0  0  0  0  0  0  0  0  0  0
    9.9761   -1.3515   13.9964 H   0  0  0  0  0  0  0  0  0  0  0  0
   10.6619    0.1660   14.0908 H   0  0  0  0  0  0  0  0  0  0  0  0
  1  2  1  0
  2  3  1  0
  2  4  1  0
  4  5  2  0
  4  6  1  0
  6  7  1  0
  7  8  1  0
  8  9  2  0
  9 10  1  0
 10 11  1  0
 11 12  1  0
 12 13  1  0
 13 14  2  0
 13 15  1  0
 10 16  2  0
 16 17  1  0
 16 18  1  0
 18 19  1  0
 18 20  2  0
 20 21  1  0
 20  8  1  0
  1 22  1  0
  1 23  1  0
  1 24  1  0
  3 25  1  0
  3 26  1  0
  3 27  1  0
  6 28  1  0
  6 29  1  0
  9 30  1  0
 12 31  1  0
 12 32  1  0
 15 33  1  0
 17 34  1  0
 17 35  1  0
M  END
>  <Energy>  (472) 
164.09296840582712

>  <compound_id>  (472) 
1193

>  <target_id>  (472) 
1

>  <reference_id>  (472) 
118

>  <inspiration_ids>  (472) 
[118, 10]

>  <energy_score>  (472) 
43.92792759918922

>  <distance_score>  (472) 
1.7621997117686117

>  <path>  (472) 
/opt/xchem-fragalysis-2/maxwin/BulkDock/SCRATCH/505734/C1193-P118/C1193-P118.minimised.mol

>  <scratch_subdir>  (472) 
/opt/xchem-fragalysis-2/maxwin/BulkDock/SCRATCH/505734/C1193-P118

>  <fragmenstein_runtime>  (472) 
2.4691481590270996

>  <fragmenstein_outcome>  (472) 
too moved

>  <fragmenstein_mode>  (472) 
expansion

>  <fragmenstein_error>  (472) 


$$$$
C1193-P10
     RDKit          3D

 35 35  0  0  0  0  0  0  0  0999 V2000
   14.9154   -2.9712   21.1889 C   0  0  0  0  0  0  0  0  0  0  0  0
   15.8843   -2.9276   20.0357 N   0  0  0  0  0  0  0  0  0  0  0  0
   16.8053   -2.5699   21.1544 C   0  0  0  0  0  0  0  0  0  0  0  0
   15.7943   -4.1914   19.1922 C   0  0  0  0  0  0  0  0  0  0  0  0
   16.3794   -5.2104   19.2812 O   0  0  0  0  0  0  0  0  0  0  0  0
   14.7118   -3.9645   18.1206 C   0  0  0  0  0  0  0  0  0  0  0  0
   14.8171   -2.6876   17.5043 O   0  0  0  0  0  0  0  0  0  0  0  0
   13.7976   -2.3104   16.6757 C   0  0  0  0  0  0  0  0  0  0  0  0
   13.8530   -0.9715   16.2722 C   0  0  0  0  0  0  0  0  0  0  0  0
   12.8445   -0.4086   15.4814 C   0  0  0  0  0  0  0  0  0  0  0  0
   12.9775    0.9324   15.2277 O   0  0  0  0  0  0  0  0  0  0  0  0
   12.5715    1.3787   13.9320 C   0  0  0  0  0  0  0  0  0  0  0  0
   11.2625    2.1664   13.8993 C   0  0  0  0  0  0  0  0  0  0  0  0
   10.5240    2.3189   12.9316 O   0  0  0  0  0  0  0  0  0  0  0  0
   10.9835    2.7952   15.0637 O   0  0  0  0  0  0  0  0  0  0  0  0
   11.7578   -1.1873   15.0731 C   0  0  0  0  0  0  0  0  0  0  0  0
   10.5939   -0.5673   14.5612 N   0  0  0  0  0  0  0  0  0  0  0  0
   11.7316   -2.5361   15.4530 C   0  0  0  0  0  0  0  0  0  0  0  0
   10.6760   -3.2839   15.1013 F   0  0  0  0  0  0  0  0  0  0  0  0
   12.7331   -3.0955   16.2418 C   0  0  0  0  0  0  0  0  0  0  0  0
   12.6119   -4.3774   16.6147 F   0  0  0  0  0  0  0  0  0  0  0  0
   13.9466   -3.2097   20.7280 H   0  0  0  0  0  0  0  0  0  0  0  0
   14.7254   -2.0052   21.6814 H   0  0  0  0  0  0  0  0  0  0  0  0
   15.0636   -3.8168   21.8797 H   0  0  0  0  0  0  0  0  0  0  0  0
   17.0111   -3.3778   21.8739 H   0  0  0  0  0  0  0  0  0  0  0  0
   16.6426   -1.5762   21.5979 H   0  0  0  0  0  0  0  0  0  0  0  0
   17.7748   -2.4639   20.6447 H   0  0  0  0  0  0  0  0  0  0  0  0
   14.8537   -4.7370   17.3568 H   0  0  0  0  0  0  0  0  0  0  0  0
   13.7425   -4.0954   18.6155 H   0  0  0  0  0  0  0  0  0  0  0  0
   14.6810   -0.3482   16.6059 H   0  0  0  0  0  0  0  0  0  0  0  0
   13.3480    2.0719   13.5882 H   0  0  0  0  0  0  0  0  0  0  0  0
   12.5341    0.5664   13.1962 H   0  0  0  0  0  0  0  0  0  0  0  0
   10.1763    3.3200   14.8960 H   0  0  0  0  0  0  0  0  0  0  0  0
   10.0701   -1.2267   13.9595 H   0  0  0  0  0  0  0  0  0  0  0  0
    9.9782   -0.2672   15.3108 H   0  0  0  0  0  0  0  0  0  0  0  0
  1  2  1  0
  2  3  1  0
  2  4  1  0
  4  5  2  0
  4  6  1  0
  6  7  1  0
  7  8  1  0
  8  9  2  0
  9 10  1  0
 10 11  1  0
 11 12  1  0
 12 13  1  0
 13 14  2  0
 13 15  1  0
 10 16  2  0
 16 17  1  0
 16 18  1  0
 18 19  1  0
 18 20  2  0
 20 21  1  0
 20  8  1  0
  1 22  1  0
  1 23  1  0
  1 24  1  0
  3 25  1  0
  3 26  1  0
  3 27  1  0
  6 28  1  0
  6 29  1  0
  9 30  1  0
 12 31  1  0
 12 32  1  0
 15 33  1  0
 17 34  1  0
 17 35  1  0
M  END
>  <Energy>  (473) 
170.61808920655037

>  <compound_id>  (473) 
1193

>  <target_id>  (473) 
1

>  <reference_id>  (473) 
10

>  <inspiration_ids>  (473) 
[118, 10]

>  <energy_score>  (473) 
50.45304839991212

>  <distance_score>  (473) 
1.4165213029628225

>  <path>  (473) 
/opt/xchem-fragalysis-2/maxwin/BulkDock/SCRATCH/505734/C1193-P10/C1193-P10.minimised.mol

>  <scratch_subdir>  (473) 
/opt/xchem-fragalysis-2/maxwin/BulkDock/SCRATCH/505734/C1193-P10

>  <fragmenstein_runtime>  (473) 
2.748979091644287

>  <fragmenstein_outcome>  (473) 
too moved

>  <fragmenstein_mode>  (473) 
expansion

>  <fragmenstein_error>  (473) 


$$$$
C3454-P118
     RDKit          3D

 47 48  0  0  0  0  0  0  0  0999 V2000
   13.8080   -4.3640   20.6866 C   0  0  0  0  0  0  0  0  0  0  0  0
   15.0917   -3.8376   20.0901 C   0  0  0  0  0  0  0  0  0  0  0  0
   15.8681   -4.5198   19.5484 O   0  0  0  0  0  0  0  0  0  0  0  0
   15.1029   -2.3067   20.3437 N   0  0  0  0  0  0  0  0  0  0  0  0
   16.1190   -1.3169   20.0653 C   0  0  0  0  0  0  0  0  0  0  0  0
   16.6390   -1.3546   18.6253 C   0  0  0  0  0  0  0  0  0  0  0  0
   15.9593   -0.3774   17.6517 C   0  0  0  0  0  0  0  0  0  0  0  0
   16.4221   -0.5979   16.2079 C   0  0  0  0  0  0  0  0  0  0  0  0
   15.2170   -0.4301   15.3868 N   0  0  0  0  0  0  0  0  0  0  0  0
   14.0912   -0.9603   16.1818 C   0  0  0  0  0  0  0  0  0  0  0  0
   14.1255   -2.5063   16.2298 C   0  0  0  0  0  0  0  0  0  0  0  0
   12.7400   -3.0864   16.4631 C   0  0  0  0  0  0  0  0  0  0  0  0
   12.8031   -4.4216   16.6669 F   0  0  0  0  0  0  0  0  0  0  0  0
   11.7864   -2.7745   15.3125 C   0  0  0  0  0  0  0  0  0  0  0  0
   12.0400   -1.4098   14.6813 C   0  0  0  0  0  0  0  0  0  0  0  0
   12.6888   -0.4549   15.6870 C   0  0  0  0  0  0  0  0  0  0  0  0
   12.6586    0.9364   15.3352 O   0  0  0  0  0  0  0  0  0  0  0  0
   12.7981    1.2633   13.9428 C   0  0  0  0  0  0  0  0  0  0  0  0
   11.4081    1.6445   13.4269 C   0  0  0  0  0  0  0  0  0  0  0  0
   11.0310    1.6396   12.2649 O   0  0  0  0  0  0  0  0  0  0  0  0
   10.5928    2.0356   14.4462 O   0  0  0  0  0  0  0  0  0  0  0  0
   14.4357   -0.4071   17.5710 C   0  0  0  0  0  0  0  0  0  0  0  0
   13.8108   -5.4570   20.6496 H   0  0  0  0  0  0  0  0  0  0  0  0
   13.7163   -4.0579   21.7318 H   0  0  0  0  0  0  0  0  0  0  0  0
   12.9652   -3.9948   20.1028 H   0  0  0  0  0  0  0  0  0  0  0  0
   14.3036   -2.0514   20.9224 H   0  0  0  0  0  0  0  0  0  0  0  0
   16.9459   -1.5479   20.7455 H   0  0  0  0  0  0  0  0  0  0  0  0
   15.7240   -0.3319   20.3323 H   0  0  0  0  0  0  0  0  0  0  0  0
   17.7028   -1.0811   18.6500 H   0  0  0  0  0  0  0  0  0  0  0  0
   16.6079   -2.3752   18.2317 H   0  0  0  0  0  0  0  0  0  0  0  0
   16.2464    0.6376   17.9610 H   0  0  0  0  0  0  0  0  0  0  0  0
   16.8395   -1.6004   16.0585 H   0  0  0  0  0  0  0  0  0  0  0  0
   17.1873    0.1284   15.9169 H   0  0  0  0  0  0  0  0  0  0  0  0
   15.3306   -0.9377   14.5088 H   0  0  0  0  0  0  0  0  0  0  0  0
   14.8018   -2.8932   16.9980 H   0  0  0  0  0  0  0  0  0  0  0  0
   14.5382   -2.8687   15.2871 H   0  0  0  0  0  0  0  0  0  0  0  0
   12.3513   -2.6728   17.3880 H   0  0  0  0  0  0  0  0  0  0  0  0
   11.8195   -3.5403   14.5349 H   0  0  0  0  0  0  0  0  0  0  0  0
   10.7640   -2.8044   15.6905 H   0  0  0  0  0  0  0  0  0  0  0  0
   11.0979   -0.9993   14.3056 H   0  0  0  0  0  0  0  0  0  0  0  0
   12.6895   -1.5446   13.8084 H   0  0  0  0  0  0  0  0  0  0  0  0
   12.0369   -0.4820   16.5647 H   0  0  0  0  0  0  0  0  0  0  0  0
   13.4302    2.1532   13.8722 H   0  0  0  0  0  0  0  0  0  0  0  0
   13.2362    0.4600   13.3488 H   0  0  0  0  0  0  0  0  0  0  0  0
   11.1161    1.9509   15.2784 H   0  0  0  0  0  0  0  0  0  0  0  0
   13.9982   -0.9975   18.3697 H   0  0  0  0  0  0  0  0  0  0  0  0
   14.0590    0.6184   17.6804 H   0  0  0  0  0  0  0  0  0  0  0  0
  1  2  1  0
  2  3  2  0
  2  4  1  0
  4  5  1  0
  5  6  1  0
  6  7  1  0
  7  8  1  0
  8  9  1  0
  9 10  1  0
 10 11  1  0
 11 12  1  0
 12 13  1  0
 12 14  1  0
 14 15  1  0
 15 16  1  0
 16 17  1  0
 17 18  1  0
 18 19  1  0
 19 20  2  0
 19 21  1  0
 10 22  1  0
 22  7  1  0
 16 10  1  0
  1 23  1  0
  1 24  1  0
  1 25  1  0
  4 26  1  0
  5 27  1  0
  5 28  1  0
  6 29  1  0
  6 30  1  0
  7 31  1  0
  8 32  1  0
  8 33  1  0
  9 34  1  0
 11 35  1  0
 11 36  1  0
 12 37  1  0
 14 38  1  0
 14 39  1  0
 15 40  1  0
 15 41  1  0
 16 42  1  0
 18 43  1  0
 18 44  1  0
 21 45  1  0
 22 46  1  0
 22 47  1  0
M  END
>  <Energy>  (474) 
65.486929663072331

>  <compound_id>  (474) 
3454

>  <target_id>  (474) 
1

>  <reference_id>  (474) 
118

>  <inspiration_ids>  (474) 
[118, 15]

>  <energy_score>  (474) 
-35.229233206489766

>  <distance_score>  (474) 
1.4473118066826651

>  <path>  (474) 
/opt/xchem-fragalysis-2/maxwin/BulkDock/SCRATCH/505734/C3454-P118/C3454-P118.minimised.mol

>  <scratch_subdir>  (474) 
/opt/xchem-fragalysis-2/maxwin/BulkDock/SCRATCH/505734/C3454-P118

>  <fragmenstein_runtime>  (474) 
2.7345640659332275

>  <fragmenstein_outcome>  (474) 
too moved

>  <fragmenstein_mode>  (474) 
expansion

>  <fragmenstein_error>  (474) 


$$$$
C3454-P15
     RDKit          3D

 47 48  0  0  0  0  0  0  0  0999 V2000
   13.4768   -4.4043   20.9090 C   0  0  0  0  0  0  0  0  0  0  0  0
   14.7146   -4.0591   20.1148 C   0  0  0  0  0  0  0  0  0  0  0  0
   15.2652   -4.8271   19.4294 O   0  0  0  0  0  0  0  0  0  0  0  0
   15.0642   -2.5855   20.4579 N   0  0  0  0  0  0  0  0  0  0  0  0
   16.2141   -1.7879   20.1025 C   0  0  0  0  0  0  0  0  0  0  0  0
   16.6005   -1.8479   18.6245 C   0  0  0  0  0  0  0  0  0  0  0  0
   15.9255   -0.7997   17.7268 C   0  0  0  0  0  0  0  0  0  0  0  0
   16.3667   -0.9498   16.2673 C   0  0  0  0  0  0  0  0  0  0  0  0
   15.1667   -0.6767   15.4715 N   0  0  0  0  0  0  0  0  0  0  0  0
   14.0284   -1.2213   16.2365 C   0  0  0  0  0  0  0  0  0  0  0  0
   14.0007   -2.7694   16.1577 C   0  0  0  0  0  0  0  0  0  0  0  0
   12.5961   -3.3007   16.3614 C   0  0  0  0  0  0  0  0  0  0  0  0
   12.6128   -4.6493   16.4561 F   0  0  0  0  0  0  0  0  0  0  0  0
   11.6804   -2.8725   15.2199 C   0  0  0  0  0  0  0  0  0  0  0  0
   11.9372   -1.4489   14.7415 C   0  0  0  0  0  0  0  0  0  0  0  0
   12.6440   -0.6121   15.8090 C   0  0  0  0  0  0  0  0  0  0  0  0
   12.6779    0.8021   15.5519 O   0  0  0  0  0  0  0  0  0  0  0  0
   12.8423    1.2177   14.1867 C   0  0  0  0  0  0  0  0  0  0  0  0
   11.4670    1.6536   13.6739 C   0  0  0  0  0  0  0  0  0  0  0  0
   11.1005    1.7008   12.5089 O   0  0  0  0  0  0  0  0  0  0  0  0
   10.6539    2.0247   14.7029 O   0  0  0  0  0  0  0  0  0  0  0  0
   14.3994   -0.8050   17.6704 C   0  0  0  0  0  0  0  0  0  0  0  0
   13.0274   -5.3147   20.5030 H   0  0  0  0  0  0  0  0  0  0  0  0
   13.7484   -4.5720   21.9543 H   0  0  0  0  0  0  0  0  0  0  0  0
   12.7420   -3.6037   20.8407 H   0  0  0  0  0  0  0  0  0  0  0  0
   14.4118   -2.2348   21.1554 H   0  0  0  0  0  0  0  0  0  0  0  0
   17.0415   -2.1877   20.6988 H   0  0  0  0  0  0  0  0  0  0  0  0
   16.0295   -0.7599   20.4295 H   0  0  0  0  0  0  0  0  0  0  0  0
   17.6822   -1.6654   18.5627 H   0  0  0  0  0  0  0  0  0  0  0  0
   16.4471   -2.8552   18.2259 H   0  0  0  0  0  0  0  0  0  0  0  0
   16.2370    0.1914   18.0855 H   0  0  0  0  0  0  0  0  0  0  0  0
   16.7364   -1.9594   16.0527 H   0  0  0  0  0  0  0  0  0  0  0  0
   17.1638   -0.2434   16.0152 H   0  0  0  0  0  0  0  0  0  0  0  0
   15.2544   -1.1226   14.5582 H   0  0  0  0  0  0  0  0  0  0  0  0
   14.6685   -3.2408   16.8857 H   0  0  0  0  0  0  0  0  0  0  0  0
   14.3734   -3.0974   15.1853 H   0  0  0  0  0  0  0  0  0  0  0  0
   12.2157   -2.9347   17.3150 H   0  0  0  0  0  0  0  0  0  0  0  0
   11.7659   -3.5469   14.3658 H   0  0  0  0  0  0  0  0  0  0  0  0
   10.6432   -2.9625   15.5396 H   0  0  0  0  0  0  0  0  0  0  0  0
   10.9898   -0.9808   14.4576 H   0  0  0  0  0  0  0  0  0  0  0  0
   12.5419   -1.4981   13.8287 H   0  0  0  0  0  0  0  0  0  0  0  0
   12.0032   -0.6707   16.6968 H   0  0  0  0  0  0  0  0  0  0  0  0
   13.4874    2.1011   14.1839 H   0  0  0  0  0  0  0  0  0  0  0  0
   13.2819    0.4503   13.5481 H   0  0  0  0  0  0  0  0  0  0  0  0
   11.1665    1.8924   15.5361 H   0  0  0  0  0  0  0  0  0  0  0  0
   13.9582   -1.4705   18.4111 H   0  0  0  0  0  0  0  0  0  0  0  0
   14.0361    0.2083   17.8866 H   0  0  0  0  0  0  0  0  0  0  0  0
  1  2  1  0
  2  3  2  0
  2  4  1  0
  4  5  1  0
  5  6  1  0
  6  7  1  0
  7  8  1  0
  8  9  1  0
  9 10  1  0
 10 11  1  0
 11 12  1  0
 12 13  1  0
 12 14  1  0
 14 15  1  0
 15 16  1  0
 16 17  1  0
 17 18  1  0
 18 19  1  0
 19 20  2  0
 19 21  1  0
 10 22  1  0
 22  7  1  0
 16 10  1  0
  1 23  1  0
  1 24  1  0
  1 25  1  0
  4 26  1  0
  5 27  1  0
  5 28  1  0
  6 29  1  0
  6 30  1  0
  7 31  1  0
  8 32  1  0
  8 33  1  0
  9 34  1  0
 11 35  1  0
 11 36  1  0
 12 37  1  0
 14 38  1  0
 14 39  1  0
 15 40  1  0
 15 41  1  0
 16 42  1  0
 18 43  1  0
 18 44  1  0
 21 45  1  0
 22 46  1  0
 22 47  1  0
M  END
>  <Energy>  (475) 
64.523491075107827

>  <compound_id>  (475) 
3454

>  <target_id>  (475) 
1

>  <reference_id>  (475) 
15

>  <inspiration_ids>  (475) 
[118, 15]

>  <energy_score>  (475) 
-36.19267179445569

>  <distance_score>  (475) 
1.3195106470556164

>  <path>  (475) 
/opt/xchem-fragalysis-2/maxwin/BulkDock/SCRATCH/505734/C3454-P15/C3454-P15.minimised.mol

>  <scratch_subdir>  (475) 
/opt/xchem-fragalysis-2/maxwin/BulkDock/SCRATCH/505734/C3454-P15

>  <fragmenstein_runtime>  (475) 
4.0484349727630615

>  <fragmenstein_outcome>  (475) 
too moved

>  <fragmenstein_mode>  (475) 
expansion

>  <fragmenstein_error>  (475) 


$$$$
C3455-P118
     RDKit          3D

 26 26  0  0  0  0  0  0  0  0999 V2000
   13.6884   -1.4983   12.7070 C   0  0  0  0  0  0  0  0  0  0  0  0
   12.3038   -1.3681   13.3526 C   0  0  0  0  0  0  0  0  0  0  0  0
   12.4369   -1.4717   14.8503 C   0  0  0  0  0  0  0  0  0  0  0  0
   12.0382   -2.6833   15.4499 C   0  0  0  0  0  0  0  0  0  0  0  0
   11.0648   -3.4377   14.8609 O   0  0  0  0  0  0  0  0  0  0  0  0
   12.6722   -3.1481   16.5894 C   0  0  0  0  0  0  0  0  0  0  0  0
   12.3753   -4.3630   17.0647 F   0  0  0  0  0  0  0  0  0  0  0  0
   13.6460   -2.3792   17.1841 C   0  0  0  0  0  0  0  0  0  0  0  0
   14.3539   -2.8744   18.2050 F   0  0  0  0  0  0  0  0  0  0  0  0
   13.8510   -1.0776   16.7457 C   0  0  0  0  0  0  0  0  0  0  0  0
   14.6821   -0.2819   17.4376 F   0  0  0  0  0  0  0  0  0  0  0  0
   13.2197   -0.5810   15.5947 C   0  0  0  0  0  0  0  0  0  0  0  0
   13.5205    0.7249   15.3299 O   0  0  0  0  0  0  0  0  0  0  0  0
   12.8803    1.5010   14.3292 C   0  0  0  0  0  0  0  0  0  0  0  0
   11.3916    1.7656   14.5237 C   0  0  0  0  0  0  0  0  0  0  0  0
   10.5968    1.9619   13.6136 O   0  0  0  0  0  0  0  0  0  0  0  0
   11.0399    1.8196   15.8326 O   0  0  0  0  0  0  0  0  0  0  0  0
   14.3890   -0.7316   13.0510 H   0  0  0  0  0  0  0  0  0  0  0  0
   13.6302   -1.4156   11.6227 H   0  0  0  0  0  0  0  0  0  0  0  0
   14.1343   -2.4721   12.9372 H   0  0  0  0  0  0  0  0  0  0  0  0
   11.7831   -0.4619   13.0480 H   0  0  0  0  0  0  0  0  0  0  0  0
   11.6947   -2.1895   12.9777 H   0  0  0  0  0  0  0  0  0  0  0  0
   10.8248   -4.1987   15.4313 H   0  0  0  0  0  0  0  0  0  0  0  0
   13.0863    1.1227   13.3275 H   0  0  0  0  0  0  0  0  0  0  0  0
   13.3553    2.4892   14.3647 H   0  0  0  0  0  0  0  0  0  0  0  0
   11.8305    1.7108   16.4027 H   0  0  0  0  0  0  0  0  0  0  0  0
  1  2  1  0
  2  3  1  0
  3  4  2  0
  4  5  1  0
  4  6  1  0
  6  7  1  0
  6  8  2  0
  8  9  1  0
  8 10  1  0
 10 11  1  0
 10 12  2  0
 12 13  1  0
 13 14  1  0
 14 15  1  0
 15 16  2  0
 15 17  1  0
 12  3  1  0
  1 18  1  0
  1 19  1  0
  1 20  1  0
  2 21  1  0
  2 22  1  0
  5 23  1  0
 14 24  1  0
 14 25  1  0
 17 26  1  0
M  END
>  <Energy>  (476) 
66.735116294831727

>  <compound_id>  (476) 
3455

>  <target_id>  (476) 
1

>  <reference_id>  (476) 
118

>  <inspiration_ids>  (476) 
[118, 20]

>  <energy_score>  (476) 
-25.478694414808274

>  <distance_score>  (476) 
0.9046539444161785

>  <path>  (476) 
/opt/xchem-fragalysis-2/maxwin/BulkDock/SCRATCH/505734/C3455-P118/C3455-P118.minimised.mol

>  <scratch_subdir>  (476) 
/opt/xchem-fragalysis-2/maxwin/BulkDock/SCRATCH/505734/C3455-P118

>  <fragmenstein_runtime>  (476) 
1.6479415893554688

>  <fragmenstein_outcome>  (476) 
acceptable

>  <fragmenstein_mode>  (476) 
expansion

>  <fragmenstein_error>  (476) 


$$$$
C3455-P20
     RDKit          3D

 26 26  0  0  0  0  0  0  0  0999 V2000
   10.9978    0.5465   13.8534 C   0  0  0  0  0  0  0  0  0  0  0  0
   10.7235   -0.3073   15.0816 C   0  0  0  0  0  0  0  0  0  0  0  0
   11.8986   -1.1442   15.5462 C   0  0  0  0  0  0  0  0  0  0  0  0
   11.7827   -2.5369   15.6968 C   0  0  0  0  0  0  0  0  0  0  0  0
   10.6586   -3.1702   15.2583 O   0  0  0  0  0  0  0  0  0  0  0  0
   12.7781   -3.2805   16.3224 C   0  0  0  0  0  0  0  0  0  0  0  0
   12.5755   -4.5822   16.5656 F   0  0  0  0  0  0  0  0  0  0  0  0
   13.9453   -2.6700   16.7317 C   0  0  0  0  0  0  0  0  0  0  0  0
   14.8974   -3.3910   17.3372 F   0  0  0  0  0  0  0  0  0  0  0  0
   14.1189   -1.3090   16.5281 C   0  0  0  0  0  0  0  0  0  0  0  0
   15.2484   -0.7340   16.9647 F   0  0  0  0  0  0  0  0  0  0  0  0
   13.1072   -0.5378   15.9392 C   0  0  0  0  0  0  0  0  0  0  0  0
   13.1827    0.8273   15.8120 O   0  0  0  0  0  0  0  0  0  0  0  0
   14.4622    1.3218   15.3880 C   0  0  0  0  0  0  0  0  0  0  0  0
   14.2693    2.7227   14.8308 C   0  0  0  0  0  0  0  0  0  0  0  0
   15.0299    3.2575   14.0380 O   0  0  0  0  0  0  0  0  0  0  0  0
   13.1730    3.3503   15.3251 O   0  0  0  0  0  0  0  0  0  0  0  0
   11.5261    1.4681   14.1078 H   0  0  0  0  0  0  0  0  0  0  0  0
   10.0582    0.8477   13.3842 H   0  0  0  0  0  0  0  0  0  0  0  0
   11.6021    0.0098   13.1226 H   0  0  0  0  0  0  0  0  0  0  0  0
   10.4113    0.3434   15.9082 H   0  0  0  0  0  0  0  0  0  0  0  0
    9.8548   -0.9424   14.8893 H   0  0  0  0  0  0  0  0  0  0  0  0
   10.7200   -4.1354   15.4329 H   0  0  0  0  0  0  0  0  0  0  0  0
   14.8773    0.6945   14.5912 H   0  0  0  0  0  0  0  0  0  0  0  0
   15.1410    1.4052   16.2414 H   0  0  0  0  0  0  0  0  0  0  0  0
   12.6961    2.7628   15.9492 H   0  0  0  0  0  0  0  0  0  0  0  0
  1  2  1  0
  2  3  1  0
  3  4  2  0
  4  5  1  0
  4  6  1  0
  6  7  1  0
  6  8  2  0
  8  9  1  0
  8 10  1  0
 10 11  1  0
 10 12  2  0
 12 13  1  0
 13 14  1  0
 14 15  1  0
 15 16  2  0
 15 17  1  0
 12  3  1  0
  1 18  1  0
  1 19  1  0
  1 20  1  0
  2 21  1  0
  2 22  1  0
  5 23  1  0
 14 24  1  0
 14 25  1  0
 17 26  1  0
M  END
>  <Energy>  (477) 
48.221627656867284

>  <compound_id>  (477) 
3455

>  <target_id>  (477) 
1

>  <reference_id>  (477) 
20

>  <inspiration_ids>  (477) 
[118, 20]

>  <energy_score>  (477) 
-43.99218305277196

>  <distance_score>  (477) 
2.1811174471829364

>  <path>  (477) 
/opt/xchem-fragalysis-2/maxwin/BulkDock/SCRATCH/505734/C3455-P20/C3455-P20.minimised.mol

>  <scratch_subdir>  (477) 
/opt/xchem-fragalysis-2/maxwin/BulkDock/SCRATCH/505734/C3455-P20

>  <fragmenstein_runtime>  (477) 
1.1532251834869385

>  <fragmenstein_outcome>  (477) 
too moved

>  <fragmenstein_mode>  (477) 
expansion

>  <fragmenstein_error>  (477) 


$$$$
C3456-P118
     RDKit          3D

 29 30  0  0  0  0  0  0  0  0999 V2000
   15.4340   -2.5050   19.0641 C   0  0  0  0  0  0  0  0  0  0  0  0
   15.4085   -2.3047   17.5970 C   0  0  0  0  0  0  0  0  0  0  0  0
   16.5054   -2.1681   16.7698 C   0  0  0  0  0  0  0  0  0  0  0  0
   17.9294   -2.4320   17.1115 C   0  0  0  0  0  0  0  0  0  0  0  0
   18.1643   -3.7968   16.7869 O   0  0  0  0  0  0  0  0  0  0  0  0
   16.0334   -1.7995   15.5204 N   0  0  0  0  0  0  0  0  0  0  0  0
   16.8505   -1.5538   14.3440 C   0  0  0  0  0  0  0  0  0  0  0  0
   17.0011   -0.0852   14.0787 C   0  0  0  0  0  0  0  0  0  0  0  0
   16.2917    0.5975   13.3555 O   0  0  0  0  0  0  0  0  0  0  0  0
   18.0314    0.4766   14.7452 O   0  0  0  0  0  0  0  0  0  0  0  0
   14.6541   -1.9091   15.4867 C   0  0  0  0  0  0  0  0  0  0  0  0
   13.7208   -1.7261   14.4469 C   0  0  0  0  0  0  0  0  0  0  0  0
   12.4331   -2.2260   14.6489 C   0  0  0  0  0  0  0  0  0  0  0  0
   12.1258   -2.8600   15.8420 C   0  0  0  0  0  0  0  0  0  0  0  0
   10.9944   -3.5472   15.9533 F   0  0  0  0  0  0  0  0  0  0  0  0
   12.9975   -2.8987   16.9167 C   0  0  0  0  0  0  0  0  0  0  0  0
   14.2850   -2.3931   16.7406 C   0  0  0  0  0  0  0  0  0  0  0  0
   15.8640   -3.4815   19.3096 H   0  0  0  0  0  0  0  0  0  0  0  0
   14.4319   -2.4608   19.4990 H   0  0  0  0  0  0  0  0  0  0  0  0
   16.0370   -1.7300   19.5485 H   0  0  0  0  0  0  0  0  0  0  0  0
   18.6255   -1.8036   16.5508 H   0  0  0  0  0  0  0  0  0  0  0  0
   18.1306   -2.2867   18.1770 H   0  0  0  0  0  0  0  0  0  0  0  0
   17.4299   -4.3066   17.1709 H   0  0  0  0  0  0  0  0  0  0  0  0
   17.8309   -2.0237   14.4578 H   0  0  0  0  0  0  0  0  0  0  0  0
   16.3808   -2.0327   13.4783 H   0  0  0  0  0  0  0  0  0  0  0  0
   17.9941    1.4249   14.4969 H   0  0  0  0  0  0  0  0  0  0  0  0
   14.0106   -1.3231   13.4810 H   0  0  0  0  0  0  0  0  0  0  0  0
   11.7046   -2.2132   13.8432 H   0  0  0  0  0  0  0  0  0  0  0  0
   12.7133   -3.4103   17.8291 H   0  0  0  0  0  0  0  0  0  0  0  0
  1  2  1  0
  2  3  2  0
  3  4  1  0
  4  5  1  0
  3  6  1  0
  6  7  1  0
  7  8  1  0
  8  9  2  0
  8 10  1  0
  6 11  1  0
 11 12  2  0
 12 13  1  0
 13 14  2  0
 14 15  1  0
 14 16  1  0
 16 17  2  0
 17  2  1  0
 17 11  1  0
  1 18  1  0
  1 19  1  0
  1 20  1  0
  4 21  1  0
  4 22  1  0
  5 23  1  0
  7 24  1  0
  7 25  1  0
 10 26  1  0
 12 27  1  0
 13 28  1  0
 16 29  1  0
M  END
>  <Energy>  (478) 
4.636565670103165

>  <compound_id>  (478) 
3456

>  <target_id>  (478) 
1

>  <reference_id>  (478) 
118

>  <inspiration_ids>  (478) 
[118, 23]

>  <energy_score>  (478) 
-22.19723213208573

>  <distance_score>  (478) 
3.300822859445764

>  <path>  (478) 
/opt/xchem-fragalysis-2/maxwin/BulkDock/SCRATCH/505734/C3456-P118/C3456-P118.minimised.mol

>  <scratch_subdir>  (478) 
/opt/xchem-fragalysis-2/maxwin/BulkDock/SCRATCH/505734/C3456-P118

>  <fragmenstein_runtime>  (478) 
1.3928635120391846

>  <fragmenstein_outcome>  (478) 
too moved

>  <fragmenstein_mode>  (478) 
expansion

>  <fragmenstein_error>  (478) 


$$$$
C3456-P23
     RDKit          3D

 29 30  0  0  0  0  0  0  0  0999 V2000
   15.4417   -2.7377   19.0122 C   0  0  0  0  0  0  0  0  0  0  0  0
   15.4162   -2.4599   17.5582 C   0  0  0  0  0  0  0  0  0  0  0  0
   16.5139   -2.2055   16.7624 C   0  0  0  0  0  0  0  0  0  0  0  0
   17.9431   -2.4026   17.1347 C   0  0  0  0  0  0  0  0  0  0  0  0
   18.1868   -3.7990   17.0326 O   0  0  0  0  0  0  0  0  0  0  0  0
   16.0391   -1.8140   15.5212 N   0  0  0  0  0  0  0  0  0  0  0  0
   16.8598   -1.3856   14.3945 C   0  0  0  0  0  0  0  0  0  0  0  0
   17.5774   -2.5279   13.7073 C   0  0  0  0  0  0  0  0  0  0  0  0
   18.1444   -3.4465   14.2854 O   0  0  0  0  0  0  0  0  0  0  0  0
   17.6353   -2.4102   12.3575 O   0  0  0  0  0  0  0  0  0  0  0  0
   14.6651   -1.9851   15.4654 C   0  0  0  0  0  0  0  0  0  0  0  0
   13.7169   -1.7651   14.4462 C   0  0  0  0  0  0  0  0  0  0  0  0
   12.4371   -2.2950   14.6318 C   0  0  0  0  0  0  0  0  0  0  0  0
   12.1484   -3.0148   15.7796 C   0  0  0  0  0  0  0  0  0  0  0  0
   10.9881   -3.6527   15.8897 F   0  0  0  0  0  0  0  0  0  0  0  0
   13.0426   -3.1320   16.8276 C   0  0  0  0  0  0  0  0  0  0  0  0
   14.3115   -2.5690   16.6828 C   0  0  0  0  0  0  0  0  0  0  0  0
   16.0032   -1.9631   19.5448 H   0  0  0  0  0  0  0  0  0  0  0  0
   15.9142   -3.7054   19.2097 H   0  0  0  0  0  0  0  0  0  0  0  0
   14.4347   -2.7628   19.4384 H   0  0  0  0  0  0  0  0  0  0  0  0
   18.6421   -1.8617   16.4920 H   0  0  0  0  0  0  0  0  0  0  0  0
   18.1318   -2.0929   18.1669 H   0  0  0  0  0  0  0  0  0  0  0  0
   18.1279   -4.0122   16.0769 H   0  0  0  0  0  0  0  0  0  0  0  0
   16.2136   -0.8578   13.6882 H   0  0  0  0  0  0  0  0  0  0  0  0
   17.5968   -0.6659   14.7643 H   0  0  0  0  0  0  0  0  0  0  0  0
   17.1186   -1.6795   11.9698 H   0  0  0  0  0  0  0  0  0  0  0  0
   13.9743   -1.2880   13.5073 H   0  0  0  0  0  0  0  0  0  0  0  0
   11.6901   -2.2201   13.8478 H   0  0  0  0  0  0  0  0  0  0  0  0
   12.7700   -3.6931   17.7146 H   0  0  0  0  0  0  0  0  0  0  0  0
  1  2  1  0
  2  3  2  0
  3  4  1  0
  4  5  1  0
  3  6  1  0
  6  7  1  0
  7  8  1  0
  8  9  2  0
  8 10  1  0
  6 11  1  0
 11 12  2  0
 12 13  1  0
 13 14  2  0
 14 15  1  0
 14 16  1  0
 16 17  2  0
 17  2  1  0
 17 11  1  0
  1 18  1  0
  1 19  1  0
  1 20  1  0
  4 21  1  0
  4 22  1  0
  5 23  1  0
  7 24  1  0
  7 25  1  0
 10 26  1  0
 12 27  1  0
 13 28  1  0
 16 29  1  0
M  END
>  <Energy>  (479) 
11.806122925922264

>  <compound_id>  (479) 
3456

>  <target_id>  (479) 
1

>  <reference_id>  (479) 
23

>  <inspiration_ids>  (479) 
[118, 23]

>  <energy_score>  (479) 
-15.027674876266978

>  <distance_score>  (479) 
3.862388687513392

>  <path>  (479) 
/opt/xchem-fragalysis-2/maxwin/BulkDock/SCRATCH/505734/C3456-P23/C3456-P23.minimised.mol

>  <scratch_subdir>  (479) 
/opt/xchem-fragalysis-2/maxwin/BulkDock/SCRATCH/505734/C3456-P23

>  <fragmenstein_runtime>  (479) 
1.427323818206787

>  <fragmenstein_outcome>  (479) 
too moved

>  <fragmenstein_mode>  (479) 
expansion

>  <fragmenstein_error>  (479) 


$$$$
C3460-P118
     RDKit          3D

 39 39  0  0  0  0  0  0  0  0999 V2000
   16.6769   -1.9528   21.8077 C   0  0  0  0  0  0  0  0  0  0  0  0
   17.2103   -2.7663   20.6181 C   0  0  0  0  0  0  0  0  0  0  0  0
   17.5821   -4.2001   21.0748 C   0  0  0  0  0  0  0  0  0  0  0  0
   18.4911   -4.1945   22.1699 O   0  0  0  0  0  0  0  0  0  0  0  0
   18.4655   -2.0566   20.0522 C   0  0  0  0  0  0  0  0  0  0  0  0
   18.9180   -2.6950   18.8544 O   0  0  0  0  0  0  0  0  0  0  0  0
   16.1601   -2.8396   19.5883 N   0  0  0  0  0  0  0  0  0  0  0  0
   15.5686   -1.7313   18.6738 C   0  0  0  0  0  0  0  0  0  0  0  0
   15.8720   -0.6390   18.5498 O   0  0  0  0  0  0  0  0  0  0  0  0
   14.4536   -2.5536   17.9594 N   0  0  0  0  0  0  0  0  0  0  0  0
   13.5979   -2.1987   16.9199 C   0  0  0  0  0  0  0  0  0  0  0  0
   13.6312   -0.9355   16.3337 C   0  0  0  0  0  0  0  0  0  0  0  0
   12.7317   -0.6093   15.3139 C   0  0  0  0  0  0  0  0  0  0  0  0
   12.8380    0.6670   14.8330 O   0  0  0  0  0  0  0  0  0  0  0  0
   12.4781    0.8648   13.4616 C   0  0  0  0  0  0  0  0  0  0  0  0
   11.1035    1.5049   13.3703 C   0  0  0  0  0  0  0  0  0  0  0  0
   10.4494    1.6119   12.3418 O   0  0  0  0  0  0  0  0  0  0  0  0
   10.6585    1.9910   14.5558 O   0  0  0  0  0  0  0  0  0  0  0  0
   11.7749   -1.5383   14.9023 C   0  0  0  0  0  0  0  0  0  0  0  0
   11.7409   -2.8047   15.4843 C   0  0  0  0  0  0  0  0  0  0  0  0
   12.6509   -3.1253   16.4857 C   0  0  0  0  0  0  0  0  0  0  0  0
   12.6053   -4.3418   17.0480 F   0  0  0  0  0  0  0  0  0  0  0  0
   15.7961   -2.4348   22.2476 H   0  0  0  0  0  0  0  0  0  0  0  0
   17.4306   -1.8410   22.5945 H   0  0  0  0  0  0  0  0  0  0  0  0
   16.3727   -0.9468   21.4964 H   0  0  0  0  0  0  0  0  0  0  0  0
   16.6839   -4.7418   21.3939 H   0  0  0  0  0  0  0  0  0  0  0  0
   18.0296   -4.7676   20.2507 H   0  0  0  0  0  0  0  0  0  0  0  0
   18.7980   -5.1098   22.2933 H   0  0  0  0  0  0  0  0  0  0  0  0
   18.2624   -1.0072   19.8114 H   0  0  0  0  0  0  0  0  0  0  0  0
   19.2903   -2.0722   20.7723 H   0  0  0  0  0  0  0  0  0  0  0  0
   18.2228   -2.5278   18.1927 H   0  0  0  0  0  0  0  0  0  0  0  0
   15.6042   -3.6727   19.5123 H   0  0  0  0  0  0  0  0  0  0  0  0
   14.3994   -3.4729   18.3631 H   0  0  0  0  0  0  0  0  0  0  0  0
   14.3577   -0.1928   16.6547 H   0  0  0  0  0  0  0  0  0  0  0  0
   13.1970    1.5744   13.0397 H   0  0  0  0  0  0  0  0  0  0  0  0
   12.5160   -0.0556   12.8705 H   0  0  0  0  0  0  0  0  0  0  0  0
   11.3374    1.8376   15.2515 H   0  0  0  0  0  0  0  0  0  0  0  0
   11.0406   -1.3067   14.1380 H   0  0  0  0  0  0  0  0  0  0  0  0
   11.0127   -3.5422   15.1595 H   0  0  0  0  0  0  0  0  0  0  0  0
  1  2  1  0
  2  3  1  0
  3  4  1  0
  2  5  1  0
  5  6  1  0
  2  7  1  0
  7  8  1  0
  8  9  2  0
  8 10  1  0
 10 11  1  0
 11 12  2  0
 12 13  1  0
 13 14  1  0
 14 15  1  0
 15 16  1  0
 16 17  2  0
 16 18  1  0
 13 19  2  0
 19 20  1  0
 20 21  2  0
 21 22  1  0
 21 11  1  0
  1 23  1  0
  1 24  1  0
  1 25  1  0
  3 26  1  0
  3 27  1  0
  4 28  1  0
  5 29  1  0
  5 30  1  0
  6 31  1  0
  7 32  1  0
 10 33  1  0
 12 34  1  0
 15 35  1  0
 15 36  1  0
 18 37  1  0
 19 38  1  0
 20 39  1  0
M  END
>  <Energy>  (480) 
30.211922435224434

>  <compound_id>  (480) 
3460

>  <target_id>  (480) 
1

>  <reference_id>  (480) 
118

>  <inspiration_ids>  (480) 
[118, 36]

>  <energy_score>  (480) 
-37.07872896005293

>  <distance_score>  (480) 
1.2142003522557707

>  <path>  (480) 
/opt/xchem-fragalysis-2/maxwin/BulkDock/SCRATCH/505734/C3460-P118/C3460-P118.minimised.mol

>  <scratch_subdir>  (480) 
/opt/xchem-fragalysis-2/maxwin/BulkDock/SCRATCH/505734/C3460-P118

>  <fragmenstein_runtime>  (480) 
2.5760657787323

>  <fragmenstein_outcome>  (480) 
too moved

>  <fragmenstein_mode>  (480) 
expansion

>  <fragmenstein_error>  (480) 


$$$$
C3460-P36
     RDKit          3D

 39 39  0  0  0  0  0  0  0  0999 V2000
   16.7668   -4.0685   21.4465 C   0  0  0  0  0  0  0  0  0  0  0  0
   17.4880   -3.9326   20.0957 C   0  0  0  0  0  0  0  0  0  0  0  0
   17.9286   -5.3288   19.5972 C   0  0  0  0  0  0  0  0  0  0  0  0
   18.9216   -5.8957   20.4489 O   0  0  0  0  0  0  0  0  0  0  0  0
   18.7261   -3.0159   20.2455 C   0  0  0  0  0  0  0  0  0  0  0  0
   18.3290   -1.6643   20.5210 O   0  0  0  0  0  0  0  0  0  0  0  0
   16.5744   -3.3083   19.1400 N   0  0  0  0  0  0  0  0  0  0  0  0
   15.3102   -3.8764   18.4381 C   0  0  0  0  0  0  0  0  0  0  0  0
   14.8647   -4.9275   18.4587 O   0  0  0  0  0  0  0  0  0  0  0  0
   14.8614   -2.6035   17.6451 N   0  0  0  0  0  0  0  0  0  0  0  0
   13.7455   -2.3930   16.8265 C   0  0  0  0  0  0  0  0  0  0  0  0
   13.5457   -1.1071   16.2940 C   0  0  0  0  0  0  0  0  0  0  0  0
   12.4532   -0.8370   15.4574 C   0  0  0  0  0  0  0  0  0  0  0  0
   12.3549    0.4490   14.9790 O   0  0  0  0  0  0  0  0  0  0  0  0
   11.3048    0.6421   14.0273 C   0  0  0  0  0  0  0  0  0  0  0  0
   11.2889    2.0463   13.4598 C   0  0  0  0  0  0  0  0  0  0  0  0
   10.4388    2.4327   12.6641 O   0  0  0  0  0  0  0  0  0  0  0  0
   12.2895    2.8301   13.9138 O   0  0  0  0  0  0  0  0  0  0  0  0
   11.5512   -1.8599   15.1661 C   0  0  0  0  0  0  0  0  0  0  0  0
   11.7445   -3.1312   15.6866 C   0  0  0  0  0  0  0  0  0  0  0  0
   12.8283   -3.3946   16.5106 C   0  0  0  0  0  0  0  0  0  0  0  0
   12.9355   -4.6375   16.9831 F   0  0  0  0  0  0  0  0  0  0  0  0
   17.4348   -4.4606   22.2209 H   0  0  0  0  0  0  0  0  0  0  0  0
   15.9091   -4.7468   21.3684 H   0  0  0  0  0  0  0  0  0  0  0  0
   16.3782   -3.1044   21.7935 H   0  0  0  0  0  0  0  0  0  0  0  0
   18.3483   -5.2622   18.5869 H   0  0  0  0  0  0  0  0  0  0  0  0
   17.0781   -6.0186   19.5602 H   0  0  0  0  0  0  0  0  0  0  0  0
   19.0578   -6.8106   20.1423 H   0  0  0  0  0  0  0  0  0  0  0  0
   19.4009   -3.3497   21.0411 H   0  0  0  0  0  0  0  0  0  0  0  0
   19.2949   -2.9885   19.3094 H   0  0  0  0  0  0  0  0  0  0  0  0
   18.1090   -1.6262   21.4692 H   0  0  0  0  0  0  0  0  0  0  0  0
   16.6364   -2.3170   18.9756 H   0  0  0  0  0  0  0  0  0  0  0  0
   15.4251   -1.8186   17.9178 H   0  0  0  0  0  0  0  0  0  0  0  0
   14.2493   -0.3087   16.5161 H   0  0  0  0  0  0  0  0  0  0  0  0
   11.4455   -0.0288   13.1750 H   0  0  0  0  0  0  0  0  0  0  0  0
   10.3333    0.4963   14.5137 H   0  0  0  0  0  0  0  0  0  0  0  0
   12.8635    2.3336   14.5387 H   0  0  0  0  0  0  0  0  0  0  0  0
   10.6825   -1.7209   14.5348 H   0  0  0  0  0  0  0  0  0  0  0  0
   11.0507   -3.9317   15.4547 H   0  0  0  0  0  0  0  0  0  0  0  0
  1  2  1  0
  2  3  1  0
  3  4  1  0
  2  5  1  0
  5  6  1  0
  2  7  1  0
  7  8  1  0
  8  9  2  0
  8 10  1  0
 10 11  1  0
 11 12  2  0
 12 13  1  0
 13 14  1  0
 14 15  1  0
 15 16  1  0
 16 17  2  0
 16 18  1  0
 13 19  2  0
 19 20  1  0
 20 21  2  0
 21 22  1  0
 21 11  1  0
  1 23  1  0
  1 24  1  0
  1 25  1  0
  3 26  1  0
  3 27  1  0
  4 28  1  0
  5 29  1  0
  5 30  1  0
  6 31  1  0
  7 32  1  0
 10 33  1  0
 12 34  1  0
 15 35  1  0
 15 36  1  0
 18 37  1  0
 19 38  1  0
 20 39  1  0
M  END
>  <Energy>  (481) 
32.171706019671767

>  <compound_id>  (481) 
3460

>  <target_id>  (481) 
1

>  <reference_id>  (481) 
36

>  <inspiration_ids>  (481) 
[118, 36]

>  <energy_score>  (481) 
-35.11894537560491

>  <distance_score>  (481) 
1.3692463014976917

>  <path>  (481) 
/opt/xchem-fragalysis-2/maxwin/BulkDock/SCRATCH/505734/C3460-P36/C3460-P36.minimised.mol

>  <scratch_subdir>  (481) 
/opt/xchem-fragalysis-2/maxwin/BulkDock/SCRATCH/505734/C3460-P36

>  <fragmenstein_runtime>  (481) 
2.3067972660064697

>  <fragmenstein_outcome>  (481) 
too moved

>  <fragmenstein_mode>  (481) 
expansion

>  <fragmenstein_error>  (481) 


$$$$
C3462-P118
     RDKit          3D

 42 43  0  0  0  0  0  0  0  0999 V2000
   15.3662    1.0159   19.3401 C   0  0  0  0  0  0  0  0  0  0  0  0
   16.0929    0.2989   18.2254 C   0  0  0  0  0  0  0  0  0  0  0  0
   17.0101   -0.4222   18.4497 O   0  0  0  0  0  0  0  0  0  0  0  0
   15.4492    0.6727   16.9681 N   0  0  0  0  0  0  0  0  0  0  0  0
   16.0236    0.2609   15.1080 C   0  0  0  0  0  0  0  0  0  0  0  0
   15.4079   -1.0289   14.3178 C   0  0  0  0  0  0  0  0  0  0  0  0
   15.3791   -0.8280   12.8312 C   0  0  0  0  0  0  0  0  0  0  0  0
   14.5178   -1.2150   12.0627 O   0  0  0  0  0  0  0  0  0  0  0  0
   16.4906   -0.2309   12.3652 O   0  0  0  0  0  0  0  0  0  0  0  0
   14.2609   -0.7384   15.1751 C   0  0  0  0  0  0  0  0  0  0  0  0
   13.8437   -1.8860   16.1192 C   0  0  0  0  0  0  0  0  0  0  0  0
   12.3733   -2.2547   16.0007 C   0  0  0  0  0  0  0  0  0  0  0  0
   12.1788   -3.4805   16.5467 F   0  0  0  0  0  0  0  0  0  0  0  0
   11.8838   -2.2584   14.5730 C   0  0  0  0  0  0  0  0  0  0  0  0
   12.0270   -0.8932   13.9168 C   0  0  0  0  0  0  0  0  0  0  0  0
   13.0558    0.0435   14.5743 C   0  0  0  0  0  0  0  0  0  0  0  0
   13.5206    1.1225   13.7492 O   0  0  0  0  0  0  0  0  0  0  0  0
   12.6411    1.6577   12.7656 C   0  0  0  0  0  0  0  0  0  0  0  0
   11.3932    2.3552   13.2912 C   0  0  0  0  0  0  0  0  0  0  0  0
   10.3343    2.4356   12.6821 O   0  0  0  0  0  0  0  0  0  0  0  0
   11.5848    2.9102   14.5112 O   0  0  0  0  0  0  0  0  0  0  0  0
   15.6013    0.2336   15.7748 C   0  0  0  0  0  0  0  0  0  0  0  0
   14.8621    0.2763   19.9681 H   0  0  0  0  0  0  0  0  0  0  0  0
   16.0927    1.5740   19.9372 H   0  0  0  0  0  0  0  0  0  0  0  0
   14.6210    1.7206   18.9598 H   0  0  0  0  0  0  0  0  0  0  0  0
   16.0447    1.2717   14.3943 H   0  0  0  0  0  0  0  0  0  0  0  0
   17.2494    0.1048   15.1106 H   0  0  0  0  0  0  0  0  0  0  0  0
   15.9696   -1.9421   14.5542 H   0  0  0  0  0  0  0  0  0  0  0  0
   16.3885   -0.2523   11.3883 H   0  0  0  0  0  0  0  0  0  0  0  0
   14.4495   -2.7821   15.9452 H   0  0  0  0  0  0  0  0  0  0  0  0
   14.0148   -1.6157   17.1677 H   0  0  0  0  0  0  0  0  0  0  0  0
   11.7780   -1.5408   16.5732 H   0  0  0  0  0  0  0  0  0  0  0  0
   10.8411   -2.5929   14.5394 H   0  0  0  0  0  0  0  0  0  0  0  0
   12.4403   -2.9934   13.9860 H   0  0  0  0  0  0  0  0  0  0  0  0
   11.0530   -0.3893   13.9418 H   0  0  0  0  0  0  0  0  0  0  0  0
   12.2405   -1.0525   12.8598 H   0  0  0  0  0  0  0  0  0  0  0  0
   12.5477    0.5216   15.4230 H   0  0  0  0  0  0  0  0  0  0  0  0
   12.3557    0.8939   12.0400 H   0  0  0  0  0  0  0  0  0  0  0  0
   13.2092    2.4162   12.2160 H   0  0  0  0  0  0  0  0  0  0  0  0
   12.5113    2.7818   14.8116 H   0  0  0  0  0  0  0  0  0  0  0  0
   14.7117    1.1377   15.7924 H   0  0  0  0  0  0  0  0  0  0  0  0
   15.9019   -0.8133   16.4400 H   0  0  0  0  0  0  0  0  0  0  0  0
  1  2  1  0
  2  3  2  0
  2  4  1  0
  4  5  1  0
  5  6  1  0
  6  7  1  0
  7  8  2  0
  7  9  1  0
  6 10  1  0
 10 11  1  0
 11 12  1  0
 12 13  1  0
 12 14  1  0
 14 15  1  0
 15 16  1  0
 16 17  1  0
 17 18  1  0
 18 19  1  0
 19 20  2  0
 19 21  1  0
 10 22  1  0
 22  4  1  0
 16 10  1  0
  1 23  1  0
  1 24  1  0
  1 25  1  0
  5 26  1  0
  5 27  1  0
  6 28  1  0
  9 29  1  0
 11 30  1  0
 11 31  1  0
 12 32  1  0
 14 33  1  0
 14 34  1  0
 15 35  1  0
 15 36  1  0
 16 37  1  0
 18 38  1  0
 18 39  1  0
 21 40  1  0
 22 41  1  0
 22 42  1  0
M  END
>  <Energy>  (482) 
805.85093551580201

>  <compound_id>  (482) 
3462

>  <target_id>  (482) 
1

>  <reference_id>  (482) 
118

>  <inspiration_ids>  (482) 
[118, 61]

>  <energy_score>  (482) 
744.3934218680187

>  <distance_score>  (482) 
2.061021959639966

>  <path>  (482) 
/opt/xchem-fragalysis-2/maxwin/BulkDock/SCRATCH/505734/C3462-P118/C3462-P118.minimised.mol

>  <scratch_subdir>  (482) 
/opt/xchem-fragalysis-2/maxwin/BulkDock/SCRATCH/505734/C3462-P118

>  <fragmenstein_runtime>  (482) 
4.837105989456177

>  <fragmenstein_outcome>  (482) 
too moved

>  <fragmenstein_mode>  (482) 
expansion

>  <fragmenstein_error>  (482) 


$$$$
C3462-P61
     RDKit          3D

 42 43  0  0  0  0  0  0  0  0999 V2000
   14.6183    3.8834   13.4706 C   0  0  0  0  0  0  0  0  0  0  0  0
   14.7347    3.1329   14.7814 C   0  0  0  0  0  0  0  0  0  0  0  0
   14.4706    3.5851   15.8036 O   0  0  0  0  0  0  0  0  0  0  0  0
   15.2823    1.6997   14.3406 N   0  0  0  0  0  0  0  0  0  0  0  0
   15.7223    0.6073   14.9642 C   0  0  0  0  0  0  0  0  0  0  0  0
   15.4640   -0.8282   14.1029 C   0  0  0  0  0  0  0  0  0  0  0  0
   14.8942   -0.8064   12.7054 C   0  0  0  0  0  0  0  0  0  0  0  0
   14.6750    0.1460   11.9791 O   0  0  0  0  0  0  0  0  0  0  0  0
   14.6329   -2.0621   12.2908 O   0  0  0  0  0  0  0  0  0  0  0  0
   14.5508   -1.0449   15.2068 C   0  0  0  0  0  0  0  0  0  0  0  0
   14.8802   -2.3003   16.0256 C   0  0  0  0  0  0  0  0  0  0  0  0
   13.7000   -2.7775   16.8573 C   0  0  0  0  0  0  0  0  0  0  0  0
   14.0353   -3.9416   17.4743 F   0  0  0  0  0  0  0  0  0  0  0  0
   12.4599   -3.0220   16.0148 C   0  0  0  0  0  0  0  0  0  0  0  0
   12.2371   -2.0107   14.8973 C   0  0  0  0  0  0  0  0  0  0  0  0
   13.0378   -0.7229   15.0970 C   0  0  0  0  0  0  0  0  0  0  0  0
   12.7927    0.1721   14.0212 O   0  0  0  0  0  0  0  0  0  0  0  0
   11.6214    0.9675   14.1546 C   0  0  0  0  0  0  0  0  0  0  0  0
   11.3623    1.7348   12.8680 C   0  0  0  0  0  0  0  0  0  0  0  0
   10.3121    2.3212   12.6287 O   0  0  0  0  0  0  0  0  0  0  0  0
   12.3837    1.7121   11.9867 O   0  0  0  0  0  0  0  0  0  0  0  0
   15.4442    0.2433   15.5884 C   0  0  0  0  0  0  0  0  0  0  0  0
   15.2847    4.7498   13.5001 H   0  0  0  0  0  0  0  0  0  0  0  0
   14.8880    3.2683   12.6081 H   0  0  0  0  0  0  0  0  0  0  0  0
   13.5847    4.2182   13.3467 H   0  0  0  0  0  0  0  0  0  0  0  0
   16.5372    0.6273   14.0620 H   0  0  0  0  0  0  0  0  0  0  0  0
   16.9204    1.0730   15.3453 H   0  0  0  0  0  0  0  0  0  0  0  0
   16.3752   -1.4500   14.1280 H   0  0  0  0  0  0  0  0  0  0  0  0
   14.3355   -1.9804   11.3599 H   0  0  0  0  0  0  0  0  0  0  0  0
   15.1751   -3.1186   15.3566 H   0  0  0  0  0  0  0  0  0  0  0  0
   15.7372   -2.1407   16.6901 H   0  0  0  0  0  0  0  0  0  0  0  0
   13.4872   -2.0451   17.6420 H   0  0  0  0  0  0  0  0  0  0  0  0
   11.5915   -3.0247   16.6725 H   0  0  0  0  0  0  0  0  0  0  0  0
   12.4912   -4.0313   15.6054 H   0  0  0  0  0  0  0  0  0  0  0  0
   11.1655   -1.7981   14.8149 H   0  0  0  0  0  0  0  0  0  0  0  0
   12.5039   -2.4591   13.9329 H   0  0  0  0  0  0  0  0  0  0  0  0
   12.7121   -0.2510   16.0342 H   0  0  0  0  0  0  0  0  0  0  0  0
   11.7602    1.6883   14.9658 H   0  0  0  0  0  0  0  0  0  0  0  0
   10.7499    0.3349   14.3438 H   0  0  0  0  0  0  0  0  0  0  0  0
   13.1583    1.1818   12.3128 H   0  0  0  0  0  0  0  0  0  0  0  0
   14.6676    0.7009   16.4299 H   0  0  0  0  0  0  0  0  0  0  0  0
   16.2458    0.0636   16.5562 H   0  0  0  0  0  0  0  0  0  0  0  0
  1  2  1  0
  2  3  2  0
  2  4  1  0
  4  5  1  0
  5  6  1  0
  6  7  1  0
  7  8  2  0
  7  9  1  0
  6 10  1  0
 10 11  1  0
 11 12  1  0
 12 13  1  0
 12 14  1  0
 14 15  1  0
 15 16  1  0
 16 17  1  0
 17 18  1  0
 18 19  1  0
 19 20  2  0
 19 21  1  0
 10 22  1  0
 22  4  1  0
 16 10  1  0
  1 23  1  0
  1 24  1  0
  1 25  1  0
  5 26  1  0
  5 27  1  0
  6 28  1  0
  9 29  1  0
 11 30  1  0
 11 31  1  0
 12 32  1  0
 14 33  1  0
 14 34  1  0
 15 35  1  0
 15 36  1  0
 16 37  1  0
 18 38  1  0
 18 39  1  0
 21 40  1  0
 22 41  1  0
 22 42  1  0
M  END
>  <Energy>  (483) 
722.40023210095308

>  <compound_id>  (483) 
3462

>  <target_id>  (483) 
1

>  <reference_id>  (483) 
61

>  <inspiration_ids>  (483) 
[118, 61]

>  <energy_score>  (483) 
660.9427184531618

>  <distance_score>  (483) 
3.373777341832258

>  <path>  (483) 
/opt/xchem-fragalysis-2/maxwin/BulkDock/SCRATCH/505734/C3462-P61/C3462-P61.minimised.mol

>  <scratch_subdir>  (483) 
/opt/xchem-fragalysis-2/maxwin/BulkDock/SCRATCH/505734/C3462-P61

>  <fragmenstein_runtime>  (483) 
4.50664496421814

>  <fragmenstein_outcome>  (483) 
too moved

>  <fragmenstein_mode>  (483) 
expansion

>  <fragmenstein_error>  (483) 


$$$$
C3463-P118
     RDKit          3D

 51 53  0  0  0  0  0  0  0  0999 V2000
   16.2355    3.6504   13.8607 O   0  0  0  0  0  0  0  0  0  0  0  0
   15.6215    2.9028   14.6075 C   0  0  0  0  0  0  0  0  0  0  0  0
   15.1134    3.3727   15.7670 O   0  0  0  0  0  0  0  0  0  0  0  0
   15.3888    1.4187   14.3782 C   0  0  0  0  0  0  0  0  0  0  0  0
   14.1239    0.9909   14.8756 O   0  0  0  0  0  0  0  0  0  0  0  0
   13.9546   -0.4345   14.8954 C   0  0  0  0  0  0  0  0  0  0  0  0
   14.6845   -1.0467   16.1290 C   0  0  0  0  0  0  0  0  0  0  0  0
   14.7129   -0.1863   17.2984 N   0  0  0  0  0  0  0  0  0  0  0  0
   15.8059    0.7985   17.8000 C   0  0  0  0  0  0  0  0  0  0  0  0
   16.8806    1.0096   17.3907 O   0  0  0  0  0  0  0  0  0  0  0  0
   15.2889    1.4573   19.0803 C   0  0  0  0  0  0  0  0  0  0  0  0
   15.6166    0.5928   20.2468 C   0  0  0  0  0  0  0  0  0  0  0  0
   14.8588    0.0992   21.2860 C   0  0  0  0  0  0  0  0  0  0  0  0
   15.7534   -0.6714   22.0510 C   0  0  0  0  0  0  0  0  0  0  0  0
   16.9904   -0.6554   21.5524 N   0  0  0  0  0  0  0  0  0  0  0  0
   16.8890    0.1236   20.4644 N   0  0  0  0  0  0  0  0  0  0  0  0
   14.2672   -2.4665   16.4774 C   0  0  0  0  0  0  0  0  0  0  0  0
   12.7742   -2.6896   16.3819 C   0  0  0  0  0  0  0  0  0  0  0  0
   12.5110   -4.0063   16.5889 F   0  0  0  0  0  0  0  0  0  0  0  0
   12.1832   -2.2527   15.0497 C   0  0  0  0  0  0  0  0  0  0  0  0
   12.4215   -0.7503   14.7676 C   0  0  0  0  0  0  0  0  0  0  0  0
   11.5531    0.1079   15.7219 C   0  0  0  0  0  0  0  0  0  0  0  0
   10.6280    1.1237   15.0502 C   0  0  0  0  0  0  0  0  0  0  0  0
   11.3443    1.8518   13.9302 C   0  0  0  0  0  0  0  0  0  0  0  0
   11.9514    0.8694   12.9328 C   0  0  0  0  0  0  0  0  0  0  0  0
   11.9555   -0.5196   13.3862 N   0  0  0  0  0  0  0  0  0  0  0  0
   15.3814    4.3148   15.7682 H   0  0  0  0  0  0  0  0  0  0  0  0
   15.4083    1.2414   13.2976 H   0  0  0  0  0  0  0  0  0  0  0  0
   16.2147    0.8757   14.8434 H   0  0  0  0  0  0  0  0  0  0  0  0
   14.4374   -0.8628   14.0033 H   0  0  0  0  0  0  0  0  0  0  0  0
   15.7458   -1.1015   15.8516 H   0  0  0  0  0  0  0  0  0  0  0  0
   13.9279   -0.1733   17.9361 H   0  0  0  0  0  0  0  0  0  0  0  0
   14.2165    1.6522   19.0013 H   0  0  0  0  0  0  0  0  0  0  0  0
   15.7764    2.4339   19.1832 H   0  0  0  0  0  0  0  0  0  0  0  0
   13.8074    0.2540   21.4794 H   0  0  0  0  0  0  0  0  0  0  0  0
   15.5524   -1.2412   22.9495 H   0  0  0  0  0  0  0  0  0  0  0  0
   17.7216    0.2823   19.9020 H   0  0  0  0  0  0  0  0  0  0  0  0
   14.7834   -3.1522   15.8001 H   0  0  0  0  0  0  0  0  0  0  0  0
   14.6143   -2.7469   17.4800 H   0  0  0  0  0  0  0  0  0  0  0  0
   12.2945   -2.1454   17.1859 H   0  0  0  0  0  0  0  0  0  0  0  0
   12.6146   -2.8537   14.2427 H   0  0  0  0  0  0  0  0  0  0  0  0
   11.1106   -2.4900   15.0382 H   0  0  0  0  0  0  0  0  0  0  0  0
   12.1953    0.6497   16.4226 H   0  0  0  0  0  0  0  0  0  0  0  0
   10.9008   -0.5385   16.3092 H   0  0  0  0  0  0  0  0  0  0  0  0
    9.7513    0.6000   14.6491 H   0  0  0  0  0  0  0  0  0  0  0  0
   10.2539    1.8373   15.7930 H   0  0  0  0  0  0  0  0  0  0  0  0
   12.1285    2.4888   14.3546 H   0  0  0  0  0  0  0  0  0  0  0  0
   10.6449    2.5217   13.4168 H   0  0  0  0  0  0  0  0  0  0  0  0
   11.3600    0.9189   12.0133 H   0  0  0  0  0  0  0  0  0  0  0  0
   12.9556    1.1929   12.6402 H   0  0  0  0  0  0  0  0  0  0  0  0
   12.4762   -1.0979   12.7284 H   0  0  0  0  0  0  0  0  0  0  0  0
  1  2  2  0
  2  3  1  0
  2  4  1  0
  4  5  1  0
  5  6  1  0
  6  7  1  0
  7  8  1  0
  8  9  1  0
  9 10  2  0
  9 11  1  0
 11 12  1  0
 12 13  2  0
 13 14  1  0
 14 15  2  0
 15 16  1  0
  7 17  1  0
 17 18  1  0
 18 19  1  0
 18 20  1  0
 20 21  1  0
 21 22  1  0
 22 23  1  0
 23 24  1  0
 24 25  1  0
 25 26  1  0
 21  6  1  0
 16 12  1  0
 26 21  1  0
  3 27  1  0
  4 28  1  0
  4 29  1  0
  6 30  1  0
  7 31  1  0
  8 32  1  0
 11 33  1  0
 11 34  1  0
 13 35  1  0
 14 36  1  0
 16 37  1  0
 17 38  1  0
 17 39  1  0
 18 40  1  0
 20 41  1  0
 20 42  1  0
 22 43  1  0
 22 44  1  0
 23 45  1  0
 23 46  1  0
 24 47  1  0
 24 48  1  0
 25 49  1  0
 25 50  1  0
 26 51  1  0
M  END
>  <Energy>  (484) 
98.841876927822412

>  <compound_id>  (484) 
3463

>  <target_id>  (484) 
1

>  <reference_id>  (484) 
118

>  <inspiration_ids>  (484) 
[118, 63]

>  <energy_score>  (484) 
-59.31666368050344

>  <distance_score>  (484) 
2.9665696146286225

>  <path>  (484) 
/opt/xchem-fragalysis-2/maxwin/BulkDock/SCRATCH/505734/C3463-P118/C3463-P118.minimised.mol

>  <scratch_subdir>  (484) 
/opt/xchem-fragalysis-2/maxwin/BulkDock/SCRATCH/505734/C3463-P118

>  <fragmenstein_runtime>  (484) 
2.9244534969329834

>  <fragmenstein_outcome>  (484) 
too moved

>  <fragmenstein_mode>  (484) 
expansion

>  <fragmenstein_error>  (484) 


$$$$
C3463-P63
     RDKit          3D

 51 53  0  0  0  0  0  0  0  0999 V2000
   16.4957    2.2619   12.6110 O   0  0  0  0  0  0  0  0  0  0  0  0
   16.1270    1.8542   13.7042 C   0  0  0  0  0  0  0  0  0  0  0  0
   16.0308    2.6584   14.7868 O   0  0  0  0  0  0  0  0  0  0  0  0
   15.7688    0.4037   13.9894 C   0  0  0  0  0  0  0  0  0  0  0  0
   14.5998    0.3211   14.8024 O   0  0  0  0  0  0  0  0  0  0  0  0
   14.1800   -1.0308   15.0446 C   0  0  0  0  0  0  0  0  0  0  0  0
   14.8196   -1.6082   16.3353 C   0  0  0  0  0  0  0  0  0  0  0  0
   14.7332   -0.7507   17.5073 N   0  0  0  0  0  0  0  0  0  0  0  0
   15.3251    0.6626   17.7693 C   0  0  0  0  0  0  0  0  0  0  0  0
   15.9063    1.3846   17.0562 O   0  0  0  0  0  0  0  0  0  0  0  0
   15.0254    1.0225   19.2269 C   0  0  0  0  0  0  0  0  0  0  0  0
   15.7619    0.1232   20.1553 C   0  0  0  0  0  0  0  0  0  0  0  0
   15.3307   -0.7105   21.1650 C   0  0  0  0  0  0  0  0  0  0  0  0
   16.5037   -1.3044   21.6639 C   0  0  0  0  0  0  0  0  0  0  0  0
   17.5960   -0.8832   21.0242 N   0  0  0  0  0  0  0  0  0  0  0  0
   17.1281    0.0078   20.1368 N   0  0  0  0  0  0  0  0  0  0  0  0
   14.2905   -3.0087   16.6210 C   0  0  0  0  0  0  0  0  0  0  0  0
   12.7753   -3.0903   16.5857 C   0  0  0  0  0  0  0  0  0  0  0  0
   12.4187   -4.3969   16.6966 F   0  0  0  0  0  0  0  0  0  0  0  0
   12.1419   -2.5084   15.3251 C   0  0  0  0  0  0  0  0  0  0  0  0
   12.6224   -1.0750   15.0078 C   0  0  0  0  0  0  0  0  0  0  0  0
   12.0113   -0.0591   16.0003 C   0  0  0  0  0  0  0  0  0  0  0  0
   10.5904    0.3487   15.6192 C   0  0  0  0  0  0  0  0  0  0  0  0
   10.5592    0.9309   14.2104 C   0  0  0  0  0  0  0  0  0  0  0  0
   11.8162    0.6246   13.4148 C   0  0  0  0  0  0  0  0  0  0  0  0
   12.1809   -0.7687   13.6269 N   0  0  0  0  0  0  0  0  0  0  0  0
   15.7868    2.1402   15.5967 H   0  0  0  0  0  0  0  0  0  0  0  0
   15.5751   -0.0843   13.0277 H   0  0  0  0  0  0  0  0  0  0  0  0
   16.6202   -0.0732   14.4844 H   0  0  0  0  0  0  0  0  0  0  0  0
   14.5371   -1.6686   14.2204 H   0  0  0  0  0  0  0  0  0  0  0  0
   15.9000   -1.6787   16.1568 H   0  0  0  0  0  0  0  0  0  0  0  0
   14.3628   -1.1299   18.3745 H   0  0  0  0  0  0  0  0  0  0  0  0
   13.9472    0.9600   19.3854 H   0  0  0  0  0  0  0  0  0  0  0  0
   15.3200    2.0641   19.3984 H   0  0  0  0  0  0  0  0  0  0  0  0
   14.3161   -0.8728   21.5041 H   0  0  0  0  0  0  0  0  0  0  0  0
   16.6067   -2.0264   22.4642 H   0  0  0  0  0  0  0  0  0  0  0  0
   17.7966    0.4902   19.5421 H   0  0  0  0  0  0  0  0  0  0  0  0
   14.7029   -3.7071   15.8856 H   0  0  0  0  0  0  0  0  0  0  0  0
   14.6498   -3.3728   17.5919 H   0  0  0  0  0  0  0  0  0  0  0  0
   12.3834   -2.5893   17.4673 H   0  0  0  0  0  0  0  0  0  0  0  0
   12.3567   -3.1697   14.4817 H   0  0  0  0  0  0  0  0  0  0  0  0
   11.0503   -2.5468   15.4265 H   0  0  0  0  0  0  0  0  0  0  0  0
   12.6110    0.8571   16.0662 H   0  0  0  0  0  0  0  0  0  0  0  0
   12.0209   -0.4941   16.9953 H   0  0  0  0  0  0  0  0  0  0  0  0
    9.9227   -0.5192   15.6741 H   0  0  0  0  0  0  0  0  0  0  0  0
   10.1914    1.0864   16.3233 H   0  0  0  0  0  0  0  0  0  0  0  0
   10.4198    2.0170   14.2551 H   0  0  0  0  0  0  0  0  0  0  0  0
    9.6951    0.5136   13.6863 H   0  0  0  0  0  0  0  0  0  0  0  0
   11.6117    0.7999   12.3536 H   0  0  0  0  0  0  0  0  0  0  0  0
   12.6279    1.3096   13.6795 H   0  0  0  0  0  0  0  0  0  0  0  0
   12.9003   -1.0360   12.9567 H   0  0  0  0  0  0  0  0  0  0  0  0
  1  2  2  0
  2  3  1  0
  2  4  1  0
  4  5  1  0
  5  6  1  0
  6  7  1  0
  7  8  1  0
  8  9  1  0
  9 10  2  0
  9 11  1  0
 11 12  1  0
 12 13  2  0
 13 14  1  0
 14 15  2  0
 15 16  1  0
  7 17  1  0
 17 18  1  0
 18 19  1  0
 18 20  1  0
 20 21  1  0
 21 22  1  0
 22 23  1  0
 23 24  1  0
 24 25  1  0
 25 26  1  0
 21  6  1  0
 16 12  1  0
 26 21  1  0
  3 27  1  0
  4 28  1  0
  4 29  1  0
  6 30  1  0
  7 31  1  0
  8 32  1  0
 11 33  1  0
 11 34  1  0
 13 35  1  0
 14 36  1  0
 16 37  1  0
 17 38  1  0
 17 39  1  0
 18 40  1  0
 20 41  1  0
 20 42  1  0
 22 43  1  0
 22 44  1  0
 23 45  1  0
 23 46  1  0
 24 47  1  0
 24 48  1  0
 25 49  1  0
 25 50  1  0
 26 51  1  0
M  END
>  <Energy>  (485) 
87.19589584697087

>  <compound_id>  (485) 
3463

>  <target_id>  (485) 
1

>  <reference_id>  (485) 
63

>  <inspiration_ids>  (485) 
[118, 63]

>  <energy_score>  (485) 
-70.9626447613563

>  <distance_score>  (485) 
3.096426699909519

>  <path>  (485) 
/opt/xchem-fragalysis-2/maxwin/BulkDock/SCRATCH/505734/C3463-P63/C3463-P63.minimised.mol

>  <scratch_subdir>  (485) 
/opt/xchem-fragalysis-2/maxwin/BulkDock/SCRATCH/505734/C3463-P63

>  <fragmenstein_runtime>  (485) 
4.72250771522522

>  <fragmenstein_outcome>  (485) 
too moved

>  <fragmenstein_mode>  (485) 
expansion

>  <fragmenstein_error>  (485) 


$$$$
C3464-P118
     RDKit          3D

 48 51  0  0  0  0  0  0  0  0999 V2000
   15.4893   -1.1813   20.0352 C   0  0  0  0  0  0  0  0  0  0  0  0
   14.9531   -1.9433   18.9117 N   0  0  0  0  0  0  0  0  0  0  0  0
   14.3191   -1.0432   17.9403 N   0  0  0  0  0  0  0  0  0  0  0  0
   14.3810   -1.8139   16.6929 C   0  0  0  0  0  0  0  0  0  0  0  0
   14.2734   -0.8446   15.5064 C   0  0  0  0  0  0  0  0  0  0  0  0
   12.8858   -0.1911   15.4557 C   0  0  0  0  0  0  0  0  0  0  0  0
   12.8258    0.6353   14.2858 O   0  0  0  0  0  0  0  0  0  0  0  0
   11.7803    1.6230   14.3554 C   0  0  0  0  0  0  0  0  0  0  0  0
   11.2867    1.9026   12.9442 C   0  0  0  0  0  0  0  0  0  0  0  0
   10.2839    2.5459   12.6649 O   0  0  0  0  0  0  0  0  0  0  0  0
   12.0773    1.3408   11.9995 O   0  0  0  0  0  0  0  0  0  0  0  0
   11.7451   -1.2156   15.4279 C   0  0  0  0  0  0  0  0  0  0  0  0
   12.2202   -2.6557   15.4533 C   0  0  0  0  0  0  0  0  0  0  0  0
   13.2763   -2.9378   16.5241 C   0  0  0  0  0  0  0  0  0  0  0  0
   12.6237   -3.2116   17.6803 F   0  0  0  0  0  0  0  0  0  0  0  0
   15.7489   -2.3418   16.7650 N   0  0  0  0  0  0  0  0  0  0  0  0
   15.9679   -2.6872   18.1726 C   0  0  0  0  0  0  0  0  0  0  0  0
   15.7860   -4.4890   18.3609 S   0  0  0  0  0  0  0  0  0  0  0  0
   16.2912   -4.7250   20.0002 C   0  0  0  0  0  0  0  0  0  0  0  0
   17.6045   -4.7655   20.3103 C   0  0  0  0  0  0  0  0  0  0  0  0
   18.0166   -5.0424   21.6780 C   0  0  0  0  0  0  0  0  0  0  0  0
   17.1149   -5.3106   22.6399 C   0  0  0  0  0  0  0  0  0  0  0  0
   15.7309   -5.3052   22.3225 C   0  0  0  0  0  0  0  0  0  0  0  0
   14.6638   -5.5817   23.0376 N   0  0  0  0  0  0  0  0  0  0  0  0
   13.5653   -5.4025   22.2315 N   0  0  0  0  0  0  0  0  0  0  0  0
   13.9874   -5.0030   21.0504 C   0  0  0  0  0  0  0  0  0  0  0  0
   15.3585   -4.9785   21.0220 N   0  0  0  0  0  0  0  0  0  0  0  0
   15.9471   -1.8470   20.7736 H   0  0  0  0  0  0  0  0  0  0  0  0
   16.2423   -0.4487   19.7219 H   0  0  0  0  0  0  0  0  0  0  0  0
   14.6844   -0.6449   20.5505 H   0  0  0  0  0  0  0  0  0  0  0  0
   14.9202   -0.2257   17.8045 H   0  0  0  0  0  0  0  0  0  0  0  0
   15.0346   -0.0528   15.5609 H   0  0  0  0  0  0  0  0  0  0  0  0
   14.4833   -1.3597   14.5581 H   0  0  0  0  0  0  0  0  0  0  0  0
   12.7730    0.4628   16.3301 H   0  0  0  0  0  0  0  0  0  0  0  0
   10.9287    1.2686   14.9444 H   0  0  0  0  0  0  0  0  0  0  0  0
   12.1944    2.5403   14.7816 H   0  0  0  0  0  0  0  0  0  0  0  0
   12.7937    0.8417   12.4614 H   0  0  0  0  0  0  0  0  0  0  0  0
   11.1047   -1.0342   16.2902 H   0  0  0  0  0  0  0  0  0  0  0  0
   11.1056   -1.0764   14.5486 H   0  0  0  0  0  0  0  0  0  0  0  0
   11.3618   -3.3214   15.5953 H   0  0  0  0  0  0  0  0  0  0  0  0
   12.6256   -2.8686   14.4592 H   0  0  0  0  0  0  0  0  0  0  0  0
   13.7642   -3.8804   16.2940 H   0  0  0  0  0  0  0  0  0  0  0  0
   15.8318   -3.2042   16.2324 H   0  0  0  0  0  0  0  0  0  0  0  0
   16.9927   -2.3972   18.4321 H   0  0  0  0  0  0  0  0  0  0  0  0
   18.3875   -4.6269   19.5706 H   0  0  0  0  0  0  0  0  0  0  0  0
   19.0800   -5.0475   21.8997 H   0  0  0  0  0  0  0  0  0  0  0  0
   17.4131   -5.5350   23.6581 H   0  0  0  0  0  0  0  0  0  0  0  0
   13.3575   -4.7297   20.2137 H   0  0  0  0  0  0  0  0  0  0  0  0
  1  2  1  0
  2  3  1  0
  3  4  1  0
  4  5  1  0
  5  6  1  0
  6  7  1  0
  7  8  1  0
  8  9  1  0
  9 10  2  0
  9 11  1  0
  6 12  1  0
 12 13  1  0
 13 14  1  0
 14 15  1  0
  4 16  1  0
 16 17  1  0
 17 18  1  0
 18 19  1  0
 19 20  2  0
 20 21  1  0
 21 22  2  0
 22 23  1  0
 23 24  2  0
 24 25  1  0
 25 26  2  0
 26 27  1  0
 17  2  1  0
 27 19  1  0
 14  4  1  0
 27 23  1  0
  1 28  1  0
  1 29  1  0
  1 30  1  0
  3 31  1  0
  5 32  1  0
  5 33  1  0
  6 34  1  0
  8 35  1  0
  8 36  1  0
 11 37  1  0
 12 38  1  0
 12 39  1  0
 13 40  1  0
 13 41  1  0
 14 42  1  0
 16 43  1  0
 17 44  1  0
 20 45  1  0
 21 46  1  0
 22 47  1  0
 26 48  1  0
M  END
>  <Energy>  (486) 
68.579464906720304

>  <compound_id>  (486) 
3464

>  <target_id>  (486) 
1

>  <reference_id>  (486) 
118

>  <inspiration_ids>  (486) 
[118, 66]

>  <energy_score>  (486) 
-54.73244590920291

>  <distance_score>  (486) 
1.393362615113808

>  <path>  (486) 
/opt/xchem-fragalysis-2/maxwin/BulkDock/SCRATCH/505734/C3464-P118/C3464-P118.minimised.mol

>  <scratch_subdir>  (486) 
/opt/xchem-fragalysis-2/maxwin/BulkDock/SCRATCH/505734/C3464-P118

>  <fragmenstein_runtime>  (486) 
2.3387291431427

>  <fragmenstein_outcome>  (486) 
too moved

>  <fragmenstein_mode>  (486) 
expansion

>  <fragmenstein_error>  (486) 


$$$$
C3464-P66
     RDKit          3D

 48 51  0  0  0  0  0  0  0  0999 V2000
   15.8055    0.8526   17.4712 C   0  0  0  0  0  0  0  0  0  0  0  0
   15.4628   -0.5017   17.9134 N   0  0  0  0  0  0  0  0  0  0  0  0
   14.2464   -0.9512   17.2644 N   0  0  0  0  0  0  0  0  0  0  0  0
   14.5807   -2.0842   16.4119 C   0  0  0  0  0  0  0  0  0  0  0  0
   14.7356   -1.6156   14.9537 C   0  0  0  0  0  0  0  0  0  0  0  0
   13.4185   -1.1644   14.2980 C   0  0  0  0  0  0  0  0  0  0  0  0
   13.0061    0.1062   14.8356 O   0  0  0  0  0  0  0  0  0  0  0  0
   12.3532    0.8961   13.8365 C   0  0  0  0  0  0  0  0  0  0  0  0
   11.5350    2.0756   14.3380 C   0  0  0  0  0  0  0  0  0  0  0  0
   10.5082    2.4914   13.8161 O   0  0  0  0  0  0  0  0  0  0  0  0
   12.0710    2.6944   15.4063 O   0  0  0  0  0  0  0  0  0  0  0  0
   12.2756   -2.1759   14.4347 C   0  0  0  0  0  0  0  0  0  0  0  0
   12.1933   -2.8894   15.7741 C   0  0  0  0  0  0  0  0  0  0  0  0
   13.5268   -3.2401   16.4129 C   0  0  0  0  0  0  0  0  0  0  0  0
   13.2837   -3.6977   17.6721 F   0  0  0  0  0  0  0  0  0  0  0  0
   15.8460   -2.5865   16.9485 N   0  0  0  0  0  0  0  0  0  0  0  0
   16.5059   -1.4703   17.6042 C   0  0  0  0  0  0  0  0  0  0  0  0
   17.2812   -2.1390   19.1189 S   0  0  0  0  0  0  0  0  0  0  0  0
   18.0261   -0.7190   19.7722 C   0  0  0  0  0  0  0  0  0  0  0  0
   19.3022   -0.4117   19.4588 C   0  0  0  0  0  0  0  0  0  0  0  0
   19.9131    0.7868   20.0141 C   0  0  0  0  0  0  0  0  0  0  0  0
   19.2313    1.6045   20.8374 C   0  0  0  0  0  0  0  0  0  0  0  0
   17.8882    1.2932   21.1783 C   0  0  0  0  0  0  0  0  0  0  0  0
   17.0026    1.9114   21.9278 N   0  0  0  0  0  0  0  0  0  0  0  0
   15.8506    1.1602   21.9202 N   0  0  0  0  0  0  0  0  0  0  0  0
   16.0627    0.1021   21.1676 C   0  0  0  0  0  0  0  0  0  0  0  0
   17.3319    0.1338   20.6477 N   0  0  0  0  0  0  0  0  0  0  0  0
   16.7250    1.2031   17.9498 H   0  0  0  0  0  0  0  0  0  0  0  0
   15.9445    0.9219   16.3866 H   0  0  0  0  0  0  0  0  0  0  0  0
   15.0149    1.5555   17.7586 H   0  0  0  0  0  0  0  0  0  0  0  0
   13.8214   -0.2191   16.6818 H   0  0  0  0  0  0  0  0  0  0  0  0
   15.1600   -2.4329   14.3563 H   0  0  0  0  0  0  0  0  0  0  0  0
   15.4602   -0.7938   14.8873 H   0  0  0  0  0  0  0  0  0  0  0  0
   13.6362   -1.0295   13.2292 H   0  0  0  0  0  0  0  0  0  0  0  0
   13.1110    1.2910   13.1507 H   0  0  0  0  0  0  0  0  0  0  0  0
   11.6549    0.2732   13.2669 H   0  0  0  0  0  0  0  0  0  0  0  0
   11.4721    3.4414   15.6162 H   0  0  0  0  0  0  0  0  0  0  0  0
   11.3114   -1.6875   14.2668 H   0  0  0  0  0  0  0  0  0  0  0  0
   12.3683   -2.9190   13.6388 H   0  0  0  0  0  0  0  0  0  0  0  0
   11.6175   -2.2805   16.4602 H   0  0  0  0  0  0  0  0  0  0  0  0
   11.5891   -3.7977   15.6723 H   0  0  0  0  0  0  0  0  0  0  0  0
   13.9616   -4.0957   15.8953 H   0  0  0  0  0  0  0  0  0  0  0  0
   15.5798   -3.1825   17.7363 H   0  0  0  0  0  0  0  0  0  0  0  0
   17.2821   -1.0743   16.9383 H   0  0  0  0  0  0  0  0  0  0  0  0
   19.9085   -1.0308   18.8038 H   0  0  0  0  0  0  0  0  0  0  0  0
   20.9438    1.0028   19.7470 H   0  0  0  0  0  0  0  0  0  0  0  0
   19.6803    2.4978   21.2572 H   0  0  0  0  0  0  0  0  0  0  0  0
   15.3494   -0.6851   20.9643 H   0  0  0  0  0  0  0  0  0  0  0  0
  1  2  1  0
  2  3  1  0
  3  4  1  0
  4  5  1  0
  5  6  1  0
  6  7  1  0
  7  8  1  0
  8  9  1  0
  9 10  2  0
  9 11  1  0
  6 12  1  0
 12 13  1  0
 13 14  1  0
 14 15  1  0
  4 16  1  0
 16 17  1  0
 17 18  1  0
 18 19  1  0
 19 20  2  0
 20 21  1  0
 21 22  2  0
 22 23  1  0
 23 24  2  0
 24 25  1  0
 25 26  2  0
 26 27  1  0
 17  2  1  0
 27 19  1  0
 14  4  1  0
 27 23  1  0
  1 28  1  0
  1 29  1  0
  1 30  1  0
  3 31  1  0
  5 32  1  0
  5 33  1  0
  6 34  1  0
  8 35  1  0
  8 36  1  0
 11 37  1  0
 12 38  1  0
 12 39  1  0
 13 40  1  0
 13 41  1  0
 14 42  1  0
 16 43  1  0
 17 44  1  0
 20 45  1  0
 21 46  1  0
 22 47  1  0
 26 48  1  0
M  END
>  <Energy>  (487) 
60.477214942311186

>  <compound_id>  (487) 
3464

>  <target_id>  (487) 
1

>  <reference_id>  (487) 
66

>  <inspiration_ids>  (487) 
[118, 66]

>  <energy_score>  (487) 
-62.83469587361459

>  <distance_score>  (487) 
1.4327093600992493

>  <path>  (487) 
/opt/xchem-fragalysis-2/maxwin/BulkDock/SCRATCH/505734/C3464-P66/C3464-P66.minimised.mol

>  <scratch_subdir>  (487) 
/opt/xchem-fragalysis-2/maxwin/BulkDock/SCRATCH/505734/C3464-P66

>  <fragmenstein_runtime>  (487) 
1.9013078212738037

>  <fragmenstein_outcome>  (487) 
too moved

>  <fragmenstein_mode>  (487) 
expansion

>  <fragmenstein_error>  (487) 


$$$$
C3468-P118
     RDKit          3D

 45 47  0  0  0  0  0  0  0  0999 V2000
   13.9828   -4.5297   19.2423 C   0  0  0  0  0  0  0  0  0  0  0  0
   13.8229   -3.2792   18.4035 C   0  0  0  0  0  0  0  0  0  0  0  0
   14.4985   -3.3790   17.0503 C   0  0  0  0  0  0  0  0  0  0  0  0
   14.5305   -2.0927   16.1535 C   0  0  0  0  0  0  0  0  0  0  0  0
   15.7282   -2.2903   15.2650 N   0  0  0  0  0  0  0  0  0  0  0  0
   14.8856   -0.8035   16.9623 C   0  0  0  0  0  0  0  0  0  0  0  0
   14.5385    0.5059   16.2252 C   0  0  0  0  0  0  0  0  0  0  0  0
   13.0198    0.6376   16.0815 C   0  0  0  0  0  0  0  0  0  0  0  0
   12.4890    1.5270   15.0036 C   0  0  0  0  0  0  0  0  0  0  0  0
   11.2813    2.0533   14.9381 N   0  0  0  0  0  0  0  0  0  0  0  0
   11.2502    2.5405   13.6664 C   0  0  0  0  0  0  0  0  0  0  0  0
   12.3276    2.2796   12.9292 N   0  0  0  0  0  0  0  0  0  0  0  0
   13.1732    1.6203   13.8265 O   0  0  0  0  0  0  0  0  0  0  0  0
   12.3387   -0.7241   15.9328 C   0  0  0  0  0  0  0  0  0  0  0  0
   13.2173   -1.7730   15.2355 C   0  0  0  0  0  0  0  0  0  0  0  0
   13.7064   -1.2006   13.9371 N   0  0  0  0  0  0  0  0  0  0  0  0
   13.5116   -2.2306   12.9254 C   0  0  0  0  0  0  0  0  0  0  0  0
   12.2176   -2.8240   13.4091 C   0  0  0  0  0  0  0  0  0  0  0  0
   12.4443   -2.9330   14.8381 N   0  0  0  0  0  0  0  0  0  0  0  0
   11.2168   -3.2463   15.5127 C   0  0  0  0  0  0  0  0  0  0  0  0
   13.5417   -4.3853   20.2335 H   0  0  0  0  0  0  0  0  0  0  0  0
   15.0344   -4.8032   19.3680 H   0  0  0  0  0  0  0  0  0  0  0  0
   13.4582   -5.3489   18.7619 H   0  0  0  0  0  0  0  0  0  0  0  0
   12.7636   -3.1255   18.2291 H   0  0  0  0  0  0  0  0  0  0  0  0
   14.2351   -2.4578   18.9922 H   0  0  0  0  0  0  0  0  0  0  0  0
   14.0681   -4.2257   16.5152 H   0  0  0  0  0  0  0  0  0  0  0  0
   15.5393   -3.6731   17.2549 H   0  0  0  0  0  0  0  0  0  0  0  0
   15.6449   -3.2014   14.8090 H   0  0  0  0  0  0  0  0  0  0  0  0
   15.5838   -1.6378   14.4823 H   0  0  0  0  0  0  0  0  0  0  0  0
   15.9495   -0.7976   17.2344 H   0  0  0  0  0  0  0  0  0  0  0  0
   14.3428   -0.7686   17.9111 H   0  0  0  0  0  0  0  0  0  0  0  0
   14.9139    1.3568   16.8083 H   0  0  0  0  0  0  0  0  0  0  0  0
   15.0648    0.5611   15.2664 H   0  0  0  0  0  0  0  0  0  0  0  0
   12.6682    1.0943   17.0122 H   0  0  0  0  0  0  0  0  0  0  0  0
   10.4207    3.1010   13.2641 H   0  0  0  0  0  0  0  0  0  0  0  0
   12.1060   -1.1025   16.9274 H   0  0  0  0  0  0  0  0  0  0  0  0
   11.3769   -0.5908   15.4210 H   0  0  0  0  0  0  0  0  0  0  0  0
   13.0838   -0.4434   13.6595 H   0  0  0  0  0  0  0  0  0  0  0  0
   13.4497   -1.7736   11.9369 H   0  0  0  0  0  0  0  0  0  0  0  0
   14.3414   -2.9397   12.9058 H   0  0  0  0  0  0  0  0  0  0  0  0
   11.4065   -2.1283   13.2045 H   0  0  0  0  0  0  0  0  0  0  0  0
   11.9922   -3.7988   12.9747 H   0  0  0  0  0  0  0  0  0  0  0  0
   10.4844   -2.4363   15.4885 H   0  0  0  0  0  0  0  0  0  0  0  0
   11.4193   -3.5517   16.5371 H   0  0  0  0  0  0  0  0  0  0  0  0
   10.7355   -4.0874   15.0195 H   0  0  0  0  0  0  0  0  0  0  0  0
  1  2  1  0
  2  3  1  0
  3  4  1  0
  4  5  1  0
  4  6  1  0
  6  7  1  0
  7  8  1  0
  8  9  1  0
  9 10  2  0
 10 11  1  0
 11 12  2  0
 12 13  1  0
  8 14  1  0
 14 15  1  0
 15 16  1  0
 16 17  1  0
 17 18  1  0
 18 19  1  0
 19 20  1  0
 15  4  1  0
 13  9  1  0
 19 15  1  0
  1 21  1  0
  1 22  1  0
  1 23  1  0
  2 24  1  0
  2 25  1  0
  3 26  1  0
  3 27  1  0
  5 28  1  0
  5 29  1  0
  6 30  1  0
  6 31  1  0
  7 32  1  0
  7 33  1  0
  8 34  1  0
 11 35  1  0
 14 36  1  0
 14 37  1  0
 16 38  1  0
 17 39  1  0
 17 40  1  0
 18 41  1  0
 18 42  1  0
 20 43  1  0
 20 44  1  0
 20 45  1  0
M  END
>  <Energy>  (488) 
69.93786041249534

>  <compound_id>  (488) 
3468

>  <target_id>  (488) 
1

>  <reference_id>  (488) 
118

>  <inspiration_ids>  (488) 
[118, 81]

>  <energy_score>  (488) 
-43.18197701320997

>  <distance_score>  (488) 
1.734829442811401

>  <path>  (488) 
/opt/xchem-fragalysis-2/maxwin/BulkDock/SCRATCH/505734/C3468-P118/C3468-P118.minimised.mol

>  <scratch_subdir>  (488) 
/opt/xchem-fragalysis-2/maxwin/BulkDock/SCRATCH/505734/C3468-P118

>  <fragmenstein_runtime>  (488) 
5.594669580459595

>  <fragmenstein_outcome>  (488) 
too moved

>  <fragmenstein_mode>  (488) 
expansion

>  <fragmenstein_error>  (488) 


$$$$
C3468-P81
     RDKit          3D

 45 47  0  0  0  0  0  0  0  0999 V2000
   16.5379   -2.6715   18.9477 C   0  0  0  0  0  0  0  0  0  0  0  0
   15.0487   -2.4325   19.1342 C   0  0  0  0  0  0  0  0  0  0  0  0
   14.1582   -2.8400   17.9417 C   0  0  0  0  0  0  0  0  0  0  0  0
   14.2185   -2.0034   16.6164 C   0  0  0  0  0  0  0  0  0  0  0  0
   15.3628   -2.5217   15.8236 N   0  0  0  0  0  0  0  0  0  0  0  0
   14.5283   -0.5043   16.9292 C   0  0  0  0  0  0  0  0  0  0  0  0
   14.4877    0.4683   15.7261 C   0  0  0  0  0  0  0  0  0  0  0  0
   13.1819    0.2855   14.9842 C   0  0  0  0  0  0  0  0  0  0  0  0
   12.7748    1.2450   13.9415 C   0  0  0  0  0  0  0  0  0  0  0  0
   11.6553    1.9434   13.8931 N   0  0  0  0  0  0  0  0  0  0  0  0
   11.7272    2.4978   12.6547 C   0  0  0  0  0  0  0  0  0  0  0  0
   12.7795    2.1316   11.9257 N   0  0  0  0  0  0  0  0  0  0  0  0
   13.4928    1.2942   12.7886 O   0  0  0  0  0  0  0  0  0  0  0  0
   13.1399   -1.1520   14.4600 C   0  0  0  0  0  0  0  0  0  0  0  0
   12.8653   -2.0701   15.6916 C   0  0  0  0  0  0  0  0  0  0  0  0
   11.6369   -1.5253   16.2923 N   0  0  0  0  0  0  0  0  0  0  0  0
   10.5948   -1.8102   15.2928 C   0  0  0  0  0  0  0  0  0  0  0  0
   11.0547   -3.1308   14.6975 C   0  0  0  0  0  0  0  0  0  0  0  0
   12.3989   -3.3877   15.2545 N   0  0  0  0  0  0  0  0  0  0  0  0
   12.3235   -4.3894   16.3109 C   0  0  0  0  0  0  0  0  0  0  0  0
   16.7352   -3.6915   18.6037 H   0  0  0  0  0  0  0  0  0  0  0  0
   17.0587   -2.5331   19.9011 H   0  0  0  0  0  0  0  0  0  0  0  0
   16.9785   -1.9688   18.2365 H   0  0  0  0  0  0  0  0  0  0  0  0
   14.7285   -3.0351   19.9949 H   0  0  0  0  0  0  0  0  0  0  0  0
   14.8680   -1.3921   19.4237 H   0  0  0  0  0  0  0  0  0  0  0  0
   13.1429   -2.8249   18.3289 H   0  0  0  0  0  0  0  0  0  0  0  0
   14.4033   -3.8881   17.7461 H   0  0  0  0  0  0  0  0  0  0  0  0
   16.1750   -2.6817   16.4114 H   0  0  0  0  0  0  0  0  0  0  0  0
   15.0986   -3.4303   15.4383 H   0  0  0  0  0  0  0  0  0  0  0  0
   15.5161   -0.3962   17.3919 H   0  0  0  0  0  0  0  0  0  0  0  0
   13.8042   -0.1445   17.6726 H   0  0  0  0  0  0  0  0  0  0  0  0
   14.5825    1.4979   16.0921 H   0  0  0  0  0  0  0  0  0  0  0  0
   15.3454    0.2950   15.0648 H   0  0  0  0  0  0  0  0  0  0  0  0
   12.4112    0.4778   15.7405 H   0  0  0  0  0  0  0  0  0  0  0  0
   10.9990    3.1919   12.2636 H   0  0  0  0  0  0  0  0  0  0  0  0
   12.4025   -1.2410   13.6539 H   0  0  0  0  0  0  0  0  0  0  0  0
   14.0776   -1.4203   13.9551 H   0  0  0  0  0  0  0  0  0  0  0  0
   11.4676   -2.0804   17.1216 H   0  0  0  0  0  0  0  0  0  0  0  0
    9.6003   -1.8337   15.7321 H   0  0  0  0  0  0  0  0  0  0  0  0
   10.5470   -1.0079   14.5504 H   0  0  0  0  0  0  0  0  0  0  0  0
   10.3482   -3.9224   14.9207 H   0  0  0  0  0  0  0  0  0  0  0  0
   11.1537   -3.0729   13.6114 H   0  0  0  0  0  0  0  0  0  0  0  0
   11.6501   -5.2032   16.0701 H   0  0  0  0  0  0  0  0  0  0  0  0
   11.9468   -4.0301   17.2621 H   0  0  0  0  0  0  0  0  0  0  0  0
   13.2944   -4.8676   16.4393 H   0  0  0  0  0  0  0  0  0  0  0  0
  1  2  1  0
  2  3  1  0
  3  4  1  0
  4  5  1  0
  4  6  1  0
  6  7  1  0
  7  8  1  0
  8  9  1  0
  9 10  2  0
 10 11  1  0
 11 12  2  0
 12 13  1  0
  8 14  1  0
 14 15  1  0
 15 16  1  0
 16 17  1  0
 17 18  1  0
 18 19  1  0
 19 20  1  0
 15  4  1  0
 13  9  1  0
 19 15  1  0
  1 21  1  0
  1 22  1  0
  1 23  1  0
  2 24  1  0
  2 25  1  0
  3 26  1  0
  3 27  1  0
  5 28  1  0
  5 29  1  0
  6 30  1  0
  6 31  1  0
  7 32  1  0
  7 33  1  0
  8 34  1  0
 11 35  1  0
 14 36  1  0
 14 37  1  0
 16 38  1  0
 17 39  1  0
 17 40  1  0
 18 41  1  0
 18 42  1  0
 20 43  1  0
 20 44  1  0
 20 45  1  0
M  END
>  <Energy>  (489) 
79.093786611058476

>  <compound_id>  (489) 
3468

>  <target_id>  (489) 
1

>  <reference_id>  (489) 
81

>  <inspiration_ids>  (489) 
[118, 81]

>  <energy_score>  (489) 
-34.02605081464634

>  <distance_score>  (489) 
1.8401693537053738

>  <path>  (489) 
/opt/xchem-fragalysis-2/maxwin/BulkDock/SCRATCH/505734/C3468-P81/C3468-P81.minimised.mol

>  <scratch_subdir>  (489) 
/opt/xchem-fragalysis-2/maxwin/BulkDock/SCRATCH/505734/C3468-P81

>  <fragmenstein_runtime>  (489) 
5.558725357055664

>  <fragmenstein_outcome>  (489) 
too moved

>  <fragmenstein_mode>  (489) 
expansion

>  <fragmenstein_error>  (489) 


$$$$
C2261-P118
     RDKit          3D

 43 46  0  0  0  0  0  0  0  0999 V2000
   14.0289    1.0674   13.6731 N   0  0  0  0  0  0  0  0  0  0  0  0
   14.4460   -0.1659   13.0000 C   0  0  0  0  0  0  0  0  0  0  0  0
   15.1899   -1.0827   13.9270 C   0  0  0  0  0  0  0  0  0  0  0  0
   16.6106   -0.8828   14.1267 C   0  0  0  0  0  0  0  0  0  0  0  0
   17.2940   -1.7163   14.9323 C   0  0  0  0  0  0  0  0  0  0  0  0
   16.6326   -2.6962   15.6565 N   0  0  0  0  0  0  0  0  0  0  0  0
   17.1085   -3.5431   16.6269 C   0  0  0  0  0  0  0  0  0  0  0  0
   16.0265   -3.9980   17.3507 C   0  0  0  0  0  0  0  0  0  0  0  0
   14.8685   -3.4445   16.7488 C   0  0  0  0  0  0  0  0  0  0  0  0
   13.5694   -3.1134   17.4118 C   0  0  0  0  0  0  0  0  0  0  0  0
   13.5974   -1.5951   17.4074 C   0  0  0  0  0  0  0  0  0  0  0  0
   14.5677   -0.9892   18.1885 N   0  0  0  0  0  0  0  0  0  0  0  0
   14.6163    0.2557   17.8016 C   0  0  0  0  0  0  0  0  0  0  0  0
   13.6665    0.5183   16.8714 N   0  0  0  0  0  0  0  0  0  0  0  0
   12.9437   -0.6259   16.6479 C   0  0  0  0  0  0  0  0  0  0  0  0
   11.7371   -0.6509   15.8452 C   0  0  0  0  0  0  0  0  0  0  0  0
   11.2631   -1.8571   15.3605 C   0  0  0  0  0  0  0  0  0  0  0  0
    9.9341   -1.9800   15.0651 C   0  0  0  0  0  0  0  0  0  0  0  0
    9.0663   -0.9378   15.3070 C   0  0  0  0  0  0  0  0  0  0  0  0
    7.7081   -1.2040   15.2183 N   0  0  0  0  0  0  0  0  0  0  0  0
    9.5629    0.3343   15.5242 C   0  0  0  0  0  0  0  0  0  0  0  0
   10.9173    0.4865   15.7727 C   0  0  0  0  0  0  0  0  0  0  0  0
   15.2741   -2.8504   15.5617 C   0  0  0  0  0  0  0  0  0  0  0  0
   14.5976   -2.1197   14.5376 C   0  0  0  0  0  0  0  0  0  0  0  0
   14.7935    1.3698   14.2726 H   0  0  0  0  0  0  0  0  0  0  0  0
   13.2430    0.8217   14.2668 H   0  0  0  0  0  0  0  0  0  0  0  0
   13.5572   -0.6579   12.5871 H   0  0  0  0  0  0  0  0  0  0  0  0
   15.0742    0.0916   12.1393 H   0  0  0  0  0  0  0  0  0  0  0  0
   17.1198   -0.0944   13.5827 H   0  0  0  0  0  0  0  0  0  0  0  0
   18.3600   -1.6255   15.0953 H   0  0  0  0  0  0  0  0  0  0  0  0
   18.1696   -3.6427   16.8045 H   0  0  0  0  0  0  0  0  0  0  0  0
   16.0885   -4.5163   18.2987 H   0  0  0  0  0  0  0  0  0  0  0  0
   13.5611   -3.4742   18.4466 H   0  0  0  0  0  0  0  0  0  0  0  0
   12.7219   -3.5641   16.9022 H   0  0  0  0  0  0  0  0  0  0  0  0
   15.3036    1.0051   18.1702 H   0  0  0  0  0  0  0  0  0  0  0  0
   13.5045    1.4216   16.4530 H   0  0  0  0  0  0  0  0  0  0  0  0
   11.8492   -2.7610   15.3034 H   0  0  0  0  0  0  0  0  0  0  0  0
    9.5437   -2.9420   14.7670 H   0  0  0  0  0  0  0  0  0  0  0  0
    7.3665   -0.9238   14.2880 H   0  0  0  0  0  0  0  0  0  0  0  0
    7.2032   -0.6112   15.8744 H   0  0  0  0  0  0  0  0  0  0  0  0
    8.8955    1.1830   15.6181 H   0  0  0  0  0  0  0  0  0  0  0  0
   11.2640    1.4679   16.0804 H   0  0  0  0  0  0  0  0  0  0  0  0
   13.5685   -2.3382   14.3104 H   0  0  0  0  0  0  0  0  0  0  0  0
  1  2  1  0
  2  3  1  0
  3  4  1  0
  4  5  2  0
  5  6  1  0
  6  7  1  0
  7  8  2  0
  8  9  1  0
  9 10  1  0
 10 11  1  0
 11 12  1  0
 12 13  2  0
 13 14  1  0
 14 15  1  0
 15 16  1  0
 16 17  2  0
 17 18  1  0
 18 19  2  0
 19 20  1  0
 19 21  1  0
 21 22  2  0
  9 23  2  0
 23 24  1  0
 24  3  2  0
 23  6  1  0
 15 11  2  0
 22 16  1  0
  1 25  1  0
  1 26  1  0
  2 27  1  0
  2 28  1  0
  4 29  1  0
  5 30  1  0
  7 31  1  0
  8 32  1  0
 10 33  1  0
 10 34  1  0
 13 35  1  0
 14 36  1  0
 17 37  1  0
 18 38  1  0
 20 39  1  0
 20 40  1  0
 21 41  1  0
 22 42  1  0
 24 43  1  0
M  END
>  <Energy>  (490) 
92.40774071186226

>  <compound_id>  (490) 
2261

>  <target_id>  (490) 
1

>  <reference_id>  (490) 
118

>  <inspiration_ids>  (490) 
[118, 93]

>  <energy_score>  (490) 
4.158727476993818

>  <distance_score>  (490) 
2.6464300380543273

>  <path>  (490) 
/opt/xchem-fragalysis-2/maxwin/BulkDock/SCRATCH/505734/C2261-P118/C2261-P118.minimised.mol

>  <scratch_subdir>  (490) 
/opt/xchem-fragalysis-2/maxwin/BulkDock/SCRATCH/505734/C2261-P118

>  <fragmenstein_runtime>  (490) 
2.4336466789245605

>  <fragmenstein_outcome>  (490) 
too moved

>  <fragmenstein_mode>  (490) 
expansion

>  <fragmenstein_error>  (490) 


$$$$
C2261-P93
     RDKit          3D

 43 46  0  0  0  0  0  0  0  0999 V2000
   14.0914    1.1807   13.9628 N   0  0  0  0  0  0  0  0  0  0  0  0
   14.1300   -0.1102   13.2524 C   0  0  0  0  0  0  0  0  0  0  0  0
   14.9380   -1.1428   13.9860 C   0  0  0  0  0  0  0  0  0  0  0  0
   16.3812   -1.0251   14.0295 C   0  0  0  0  0  0  0  0  0  0  0  0
   17.0993   -1.9158   14.7377 C   0  0  0  0  0  0  0  0  0  0  0  0
   16.4642   -2.8822   15.5044 N   0  0  0  0  0  0  0  0  0  0  0  0
   16.9922   -3.7429   16.4341 C   0  0  0  0  0  0  0  0  0  0  0  0
   15.9632   -4.1334   17.2634 C   0  0  0  0  0  0  0  0  0  0  0  0
   14.7723   -3.5578   16.7485 C   0  0  0  0  0  0  0  0  0  0  0  0
   13.5539   -3.1707   17.5312 C   0  0  0  0  0  0  0  0  0  0  0  0
   13.5889   -1.6527   17.4810 C   0  0  0  0  0  0  0  0  0  0  0  0
   14.6163   -1.0200   18.1590 N   0  0  0  0  0  0  0  0  0  0  0  0
   14.6728    0.1889   17.6644 C   0  0  0  0  0  0  0  0  0  0  0  0
   13.6806    0.4007   16.7655 N   0  0  0  0  0  0  0  0  0  0  0  0
   12.8773   -0.7083   16.7420 C   0  0  0  0  0  0  0  0  0  0  0  0
   11.6416   -0.7438   15.9913 C   0  0  0  0  0  0  0  0  0  0  0  0
   11.1650   -1.9593   15.5501 C   0  0  0  0  0  0  0  0  0  0  0  0
    9.8769   -2.0535   15.1122 C   0  0  0  0  0  0  0  0  0  0  0  0
    9.0225   -0.9674   15.0823 C   0  0  0  0  0  0  0  0  0  0  0  0
    7.6854   -1.2400   14.8181 N   0  0  0  0  0  0  0  0  0  0  0  0
    9.4916    0.2669   15.4918 C   0  0  0  0  0  0  0  0  0  0  0  0
   10.8224    0.3940   15.8820 C   0  0  0  0  0  0  0  0  0  0  0  0
   15.0963   -2.9941   15.5218 C   0  0  0  0  0  0  0  0  0  0  0  0
   14.3699   -2.2058   14.5793 C   0  0  0  0  0  0  0  0  0  0  0  0
   15.0478    1.5366   13.9952 H   0  0  0  0  0  0  0  0  0  0  0  0
   13.5792    1.8367   13.3733 H   0  0  0  0  0  0  0  0  0  0  0  0
   13.0971   -0.4493   13.1152 H   0  0  0  0  0  0  0  0  0  0  0  0
   14.5426    0.0412   12.2477 H   0  0  0  0  0  0  0  0  0  0  0  0
   16.8726   -0.2455   13.4591 H   0  0  0  0  0  0  0  0  0  0  0  0
   18.1791   -1.8775   14.7981 H   0  0  0  0  0  0  0  0  0  0  0  0
   18.0608   -3.8777   16.5220 H   0  0  0  0  0  0  0  0  0  0  0  0
   16.0916   -4.6266   18.2183 H   0  0  0  0  0  0  0  0  0  0  0  0
   13.6504   -3.4944   18.5743 H   0  0  0  0  0  0  0  0  0  0  0  0
   12.6524   -3.6310   17.1367 H   0  0  0  0  0  0  0  0  0  0  0  0
   15.4172    0.9356   17.9028 H   0  0  0  0  0  0  0  0  0  0  0  0
   13.5961    1.1968   16.1465 H   0  0  0  0  0  0  0  0  0  0  0  0
   11.7243   -2.8809   15.5844 H   0  0  0  0  0  0  0  0  0  0  0  0
    9.5182   -3.0241   14.8014 H   0  0  0  0  0  0  0  0  0  0  0  0
    7.5914   -1.9908   14.1376 H   0  0  0  0  0  0  0  0  0  0  0  0
    7.1926   -0.4253   14.4339 H   0  0  0  0  0  0  0  0  0  0  0  0
    8.8337    1.1259   15.5285 H   0  0  0  0  0  0  0  0  0  0  0  0
   11.1705    1.3685   16.2129 H   0  0  0  0  0  0  0  0  0  0  0  0
   13.3200   -2.3837   14.4419 H   0  0  0  0  0  0  0  0  0  0  0  0
  1  2  1  0
  2  3  1  0
  3  4  1  0
  4  5  2  0
  5  6  1  0
  6  7  1  0
  7  8  2  0
  8  9  1  0
  9 10  1  0
 10 11  1  0
 11 12  1  0
 12 13  2  0
 13 14  1  0
 14 15  1  0
 15 16  1  0
 16 17  2  0
 17 18  1  0
 18 19  2  0
 19 20  1  0
 19 21  1  0
 21 22  2  0
  9 23  2  0
 23 24  1  0
 24  3  2  0
 23  6  1  0
 15 11  2  0
 22 16  1  0
  1 25  1  0
  1 26  1  0
  2 27  1  0
  2 28  1  0
  4 29  1  0
  5 30  1  0
  7 31  1  0
  8 32  1  0
 10 33  1  0
 10 34  1  0
 13 35  1  0
 14 36  1  0
 17 37  1  0
 18 38  1  0
 20 39  1  0
 20 40  1  0
 21 41  1  0
 22 42  1  0
 24 43  1  0
M  END
>  <Energy>  (491) 
83.676693048927262

>  <compound_id>  (491) 
2261

>  <target_id>  (491) 
1

>  <reference_id>  (491) 
93

>  <inspiration_ids>  (491) 
[118, 93]

>  <energy_score>  (491) 
-4.572320185942601

>  <distance_score>  (491) 
2.592147072365232

>  <path>  (491) 
/opt/xchem-fragalysis-2/maxwin/BulkDock/SCRATCH/505734/C2261-P93/C2261-P93.minimised.mol

>  <scratch_subdir>  (491) 
/opt/xchem-fragalysis-2/maxwin/BulkDock/SCRATCH/505734/C2261-P93

>  <fragmenstein_runtime>  (491) 
2.521636486053467

>  <fragmenstein_outcome>  (491) 
too moved

>  <fragmenstein_mode>  (491) 
expansion

>  <fragmenstein_error>  (491) 


$$$$
C3470-P118
     RDKit          3D

 17 16  0  0  0  0  0  0  0  0999 V2000
   11.9113    0.9522   13.1105 C   0  0  0  0  0  0  0  0  0  0  0  0
   12.2164    1.2002   14.5733 C   0  0  0  0  0  0  0  0  0  0  0  0
   13.3668    0.3254   15.1043 C   0  0  0  0  0  0  0  0  0  0  0  0
   14.7378    0.6701   14.5076 C   0  0  0  0  0  0  0  0  0  0  0  0
   15.8464   -0.2328   15.0329 C   0  0  0  0  0  0  0  0  0  0  0  0
   11.0290    1.5246   12.8062 H   0  0  0  0  0  0  0  0  0  0  0  0
   11.7034   -0.1068   12.9338 H   0  0  0  0  0  0  0  0  0  0  0  0
   12.7404    1.2554   12.4650 H   0  0  0  0  0  0  0  0  0  0  0  0
   11.3167    0.9822   15.1612 H   0  0  0  0  0  0  0  0  0  0  0  0
   12.4514    2.2592   14.7290 H   0  0  0  0  0  0  0  0  0  0  0  0
   13.1364   -0.7304   14.9153 H   0  0  0  0  0  0  0  0  0  0  0  0
   13.4160    0.4465   16.1937 H   0  0  0  0  0  0  0  0  0  0  0  0
   14.9843    1.7135   14.7356 H   0  0  0  0  0  0  0  0  0  0  0  0
   14.7084    0.5762   13.4168 H   0  0  0  0  0  0  0  0  0  0  0  0
   15.9374   -0.1465   16.1202 H   0  0  0  0  0  0  0  0  0  0  0  0
   16.8062    0.0456   14.5868 H   0  0  0  0  0  0  0  0  0  0  0  0
   15.6464   -1.2805   14.7863 H   0  0  0  0  0  0  0  0  0  0  0  0
  1  2  1  0
  2  3  1  0
  3  4  1  0
  4  5  1  0
  1  6  1  0
  1  7  1  0
  1  8  1  0
  2  9  1  0
  2 10  1  0
  3 11  1  0
  3 12  1  0
  4 13  1  0
  4 14  1  0
  5 15  1  0
  5 16  1  0
  5 17  1  0
M  END
>  <Energy>  (492) 
-4.2514895292725727

>  <compound_id>  (492) 
3470

>  <target_id>  (492) 
1

>  <reference_id>  (492) 
118

>  <inspiration_ids>  (492) 
[118, 97]

>  <energy_score>  (492) 
-7.57973390627933

>  <distance_score>  (492) 
1.8370106521983327

>  <path>  (492) 
/opt/xchem-fragalysis-2/maxwin/BulkDock/SCRATCH/505734/C3470-P118/C3470-P118.minimised.mol

>  <scratch_subdir>  (492) 
/opt/xchem-fragalysis-2/maxwin/BulkDock/SCRATCH/505734/C3470-P118

>  <fragmenstein_runtime>  (492) 
2.937246084213257

>  <fragmenstein_outcome>  (492) 
too moved

>  <fragmenstein_mode>  (492) 
expansion

>  <fragmenstein_error>  (492) 


$$$$
C3470-P97
     RDKit          3D

 17 16  0  0  0  0  0  0  0  0999 V2000
   11.8566    0.9916   13.2501 C   0  0  0  0  0  0  0  0  0  0  0  0
   12.2785    1.3553   14.6573 C   0  0  0  0  0  0  0  0  0  0  0  0
   13.4156    0.4670   15.1944 C   0  0  0  0  0  0  0  0  0  0  0  0
   14.7594    0.6837   14.4870 C   0  0  0  0  0  0  0  0  0  0  0  0
   15.8611   -0.2121   15.0379 C   0  0  0  0  0  0  0  0  0  0  0  0
   10.9960    1.5953   12.9444 H   0  0  0  0  0  0  0  0  0  0  0  0
   11.5640   -0.0603   13.2025 H   0  0  0  0  0  0  0  0  0  0  0  0
   12.6575    1.1655   12.5262 H   0  0  0  0  0  0  0  0  0  0  0  0
   11.4127    1.2480   15.3218 H   0  0  0  0  0  0  0  0  0  0  0  0
   12.5803    2.4083   14.6937 H   0  0  0  0  0  0  0  0  0  0  0  0
   13.1219   -0.5870   15.1167 H   0  0  0  0  0  0  0  0  0  0  0  0
   13.5418    0.6806   16.2632 H   0  0  0  0  0  0  0  0  0  0  0  0
   15.0630    1.7318   14.5909 H   0  0  0  0  0  0  0  0  0  0  0  0
   14.6572    0.4821   13.4153 H   0  0  0  0  0  0  0  0  0  0  0  0
   16.0241   -0.0201   16.1031 H   0  0  0  0  0  0  0  0  0  0  0  0
   16.8014   -0.0261   14.5097 H   0  0  0  0  0  0  0  0  0  0  0  0
   15.6033   -1.2688   14.9141 H   0  0  0  0  0  0  0  0  0  0  0  0
  1  2  1  0
  2  3  1  0
  3  4  1  0
  4  5  1  0
  1  6  1  0
  1  7  1  0
  1  8  1  0
  2  9  1  0
  2 10  1  0
  3 11  1  0
  3 12  1  0
  4 13  1  0
  4 14  1  0
  5 15  1  0
  5 16  1  0
  5 17  1  0
M  END
>  <Energy>  (493) 
-4.2577038516151324

>  <compound_id>  (493) 
3470

>  <target_id>  (493) 
1

>  <reference_id>  (493) 
97

>  <inspiration_ids>  (493) 
[118, 97]

>  <energy_score>  (493) 
-7.585948228621746

>  <distance_score>  (493) 
1.8865904437842422

>  <path>  (493) 
/opt/xchem-fragalysis-2/maxwin/BulkDock/SCRATCH/505734/C3470-P97/C3470-P97.minimised.mol

>  <scratch_subdir>  (493) 
/opt/xchem-fragalysis-2/maxwin/BulkDock/SCRATCH/505734/C3470-P97

>  <fragmenstein_runtime>  (493) 
2.9033851623535156

>  <fragmenstein_outcome>  (493) 
too moved

>  <fragmenstein_mode>  (493) 
expansion

>  <fragmenstein_error>  (493) 


$$$$
C3471-P118
     RDKit          3D

 27 29  0  0  0  0  0  0  0  0999 V2000
   11.8101   -4.3943   17.1015 N   0  0  0  0  0  0  0  0  0  0  0  0
   12.2855   -3.4312   16.2724 C   0  0  0  0  0  0  0  0  0  0  0  0
   11.5287   -2.9885   15.1821 C   0  0  0  0  0  0  0  0  0  0  0  0
   11.9298   -1.9252   14.3575 C   0  0  0  0  0  0  0  0  0  0  0  0
   13.1033   -1.1677   14.5609 C   0  0  0  0  0  0  0  0  0  0  0  0
   13.2176    0.0942   13.9015 C   0  0  0  0  0  0  0  0  0  0  0  0
   12.2900    0.6306   13.1403 N   0  0  0  0  0  0  0  0  0  0  0  0
   12.6322    1.9463   13.1701 C   0  0  0  0  0  0  0  0  0  0  0  0
   11.6357    2.9394   12.7081 C   0  0  0  0  0  0  0  0  0  0  0  0
   10.3451    2.3245   12.5075 O   0  0  0  0  0  0  0  0  0  0  0  0
   13.7839    2.2275   13.7858 N   0  0  0  0  0  0  0  0  0  0  0  0
   14.1829    0.9772   14.2843 O   0  0  0  0  0  0  0  0  0  0  0  0
   13.8918   -1.6723   15.5945 C   0  0  0  0  0  0  0  0  0  0  0  0
   15.1232   -1.2731   16.0447 C   0  0  0  0  0  0  0  0  0  0  0  0
   15.4783   -2.1137   17.0836 N   0  0  0  0  0  0  0  0  0  0  0  0
   14.4673   -3.0110   17.3379 C   0  0  0  0  0  0  0  0  0  0  0  0
   13.4846   -2.7531   16.4176 C   0  0  0  0  0  0  0  0  0  0  0  0
   12.3683   -4.6382   17.9098 H   0  0  0  0  0  0  0  0  0  0  0  0
   11.3052   -5.1376   16.6357 H   0  0  0  0  0  0  0  0  0  0  0  0
   10.5764   -3.4661   14.9669 H   0  0  0  0  0  0  0  0  0  0  0  0
   11.2535   -1.6216   13.5672 H   0  0  0  0  0  0  0  0  0  0  0  0
   11.9453    3.3800   11.7563 H   0  0  0  0  0  0  0  0  0  0  0  0
   11.5088    3.7388   13.4438 H   0  0  0  0  0  0  0  0  0  0  0  0
   10.4807    1.3996   12.8128 H   0  0  0  0  0  0  0  0  0  0  0  0
   15.8054   -0.4959   15.7268 H   0  0  0  0  0  0  0  0  0  0  0  0
   16.3483   -2.0593   17.5986 H   0  0  0  0  0  0  0  0  0  0  0  0
   14.5576   -3.7360   18.1346 H   0  0  0  0  0  0  0  0  0  0  0  0
  1  2  1  0
  2  3  2  0
  3  4  1  0
  4  5  2  0
  5  6  1  0
  6  7  2  0
  7  8  1  0
  8  9  1  0
  9 10  1  0
  8 11  2  0
 11 12  1  0
  5 13  1  0
 13 14  2  0
 14 15  1  0
 15 16  1  0
 16 17  2  0
 17  2  1  0
 12  6  1  0
 17 13  1  0
  1 18  1  0
  1 19  1  0
  3 20  1  0
  4 21  1  0
  9 22  1  0
  9 23  1  0
 10 24  1  0
 14 25  1  0
 15 26  1  0
 16 27  1  0
M  END
>  <Energy>  (494) 
78.079985722556771

>  <compound_id>  (494) 
3471

>  <target_id>  (494) 
1

>  <reference_id>  (494) 
118

>  <inspiration_ids>  (494) 
[118, 98]

>  <energy_score>  (494) 
-24.546580505935033

>  <distance_score>  (494) 
1.8914065170732173

>  <path>  (494) 
/opt/xchem-fragalysis-2/maxwin/BulkDock/SCRATCH/505734/C3471-P118/C3471-P118.minimised.mol

>  <scratch_subdir>  (494) 
/opt/xchem-fragalysis-2/maxwin/BulkDock/SCRATCH/505734/C3471-P118

>  <fragmenstein_runtime>  (494) 
12.451210260391235

>  <fragmenstein_outcome>  (494) 
too moved

>  <fragmenstein_mode>  (494) 
expansion

>  <fragmenstein_error>  (494) 


$$$$
C3471-P98
     RDKit          3D

 27 29  0  0  0  0  0  0  0  0999 V2000
   13.4924   -5.1706   17.2527 N   0  0  0  0  0  0  0  0  0  0  0  0
   13.2456   -3.9514   16.6525 C   0  0  0  0  0  0  0  0  0  0  0  0
   12.0241   -3.6270   16.0340 C   0  0  0  0  0  0  0  0  0  0  0  0
   11.7734   -2.4375   15.2904 C   0  0  0  0  0  0  0  0  0  0  0  0
   12.7474   -1.4387   15.1247 C   0  0  0  0  0  0  0  0  0  0  0  0
   12.5026   -0.2005   14.4693 C   0  0  0  0  0  0  0  0  0  0  0  0
   11.4658    0.5947   14.5779 N   0  0  0  0  0  0  0  0  0  0  0  0
   11.8338    1.6248   13.7675 C   0  0  0  0  0  0  0  0  0  0  0  0
   10.9473    2.7755   13.5230 C   0  0  0  0  0  0  0  0  0  0  0  0
   10.3678    2.7175   12.2175 O   0  0  0  0  0  0  0  0  0  0  0  0
   13.0097    1.4856   13.1418 N   0  0  0  0  0  0  0  0  0  0  0  0
   13.4657    0.2570   13.6184 O   0  0  0  0  0  0  0  0  0  0  0  0
   13.9473   -1.7491   15.7666 C   0  0  0  0  0  0  0  0  0  0  0  0
   15.1064   -1.0193   15.8403 C   0  0  0  0  0  0  0  0  0  0  0  0
   16.0130   -1.7536   16.5773 N   0  0  0  0  0  0  0  0  0  0  0  0
   15.4467   -2.9358   16.9860 C   0  0  0  0  0  0  0  0  0  0  0  0
   14.1659   -2.9379   16.5002 C   0  0  0  0  0  0  0  0  0  0  0  0
   14.4498   -5.2084   17.5874 H   0  0  0  0  0  0  0  0  0  0  0  0
   13.2454   -5.8839   16.5628 H   0  0  0  0  0  0  0  0  0  0  0  0
   11.2224   -4.3486   16.1087 H   0  0  0  0  0  0  0  0  0  0  0  0
   10.7879   -2.3019   14.8437 H   0  0  0  0  0  0  0  0  0  0  0  0
   11.4976    3.7181   13.6105 H   0  0  0  0  0  0  0  0  0  0  0  0
   10.1322    2.8010   14.2520 H   0  0  0  0  0  0  0  0  0  0  0  0
   11.1364    2.6418   11.6156 H   0  0  0  0  0  0  0  0  0  0  0  0
   15.3934   -0.0545   15.4432 H   0  0  0  0  0  0  0  0  0  0  0  0
   16.9578   -1.4588   16.7907 H   0  0  0  0  0  0  0  0  0  0  0  0
   16.0141   -3.6366   17.5819 H   0  0  0  0  0  0  0  0  0  0  0  0
  1  2  1  0
  2  3  2  0
  3  4  1  0
  4  5  2  0
  5  6  1  0
  6  7  2  0
  7  8  1  0
  8  9  1  0
  9 10  1  0
  8 11  2  0
 11 12  1  0
  5 13  1  0
 13 14  2  0
 14 15  1  0
 15 16  1  0
 16 17  2  0
 17  2  1  0
 12  6  1  0
 17 13  1  0
  1 18  1  0
  1 19  1  0
  3 20  1  0
  4 21  1  0
  9 22  1  0
  9 23  1  0
 10 24  1  0
 14 25  1  0
 15 26  1  0
 16 27  1  0
M  END
>  <Energy>  (495) 
72.834447022170153

>  <compound_id>  (495) 
3471

>  <target_id>  (495) 
1

>  <reference_id>  (495) 
98

>  <inspiration_ids>  (495) 
[118, 98]

>  <energy_score>  (495) 
-29.79211920632011

>  <distance_score>  (495) 
1.826906981919841

>  <path>  (495) 
/opt/xchem-fragalysis-2/maxwin/BulkDock/SCRATCH/505734/C3471-P98/C3471-P98.minimised.mol

>  <scratch_subdir>  (495) 
/opt/xchem-fragalysis-2/maxwin/BulkDock/SCRATCH/505734/C3471-P98

>  <fragmenstein_runtime>  (495) 
11.708879232406616

>  <fragmenstein_outcome>  (495) 
too moved

>  <fragmenstein_mode>  (495) 
expansion

>  <fragmenstein_error>  (495) 


$$$$
C3473-P118
     RDKit          3D

 35 36  0  0  0  0  0  0  0  0999 V2000
   15.5954    4.1999   18.6384 C   0  0  0  0  0  0  0  0  0  0  0  0
   15.6544    4.1567   17.1194 C   0  0  0  0  0  0  0  0  0  0  0  0
   15.4762    2.8178   16.5895 N   0  0  0  0  0  0  0  0  0  0  0  0
   16.5108    1.9977   16.2440 C   0  0  0  0  0  0  0  0  0  0  0  0
   16.0946    0.7956   15.9352 N   0  0  0  0  0  0  0  0  0  0  0  0
   14.7311    0.8321   16.0629 C   0  0  0  0  0  0  0  0  0  0  0  0
   13.9527   -0.3972   16.0436 C   0  0  0  0  0  0  0  0  0  0  0  0
   14.2849   -1.3567   17.0046 C   0  0  0  0  0  0  0  0  0  0  0  0
   13.5792   -2.5518   17.0938 C   0  0  0  0  0  0  0  0  0  0  0  0
   12.5333   -2.8205   16.2158 C   0  0  0  0  0  0  0  0  0  0  0  0
   11.7156   -3.9128   16.4584 N   0  0  0  0  0  0  0  0  0  0  0  0
   12.1972   -1.8730   15.2493 C   0  0  0  0  0  0  0  0  0  0  0  0
   12.9298   -0.6827   15.1362 C   0  0  0  0  0  0  0  0  0  0  0  0
   14.3048    2.1114   16.4087 C   0  0  0  0  0  0  0  0  0  0  0  0
   12.9510    2.6577   16.6565 C   0  0  0  0  0  0  0  0  0  0  0  0
   12.1878    2.6696   15.4212 N   0  0  0  0  0  0  0  0  0  0  0  0
   10.8832    2.0526   15.5942 C   0  0  0  0  0  0  0  0  0  0  0  0
   16.3733    3.5678   19.0796 H   0  0  0  0  0  0  0  0  0  0  0  0
   14.6284    3.8460   19.0105 H   0  0  0  0  0  0  0  0  0  0  0  0
   15.7439    5.2239   18.9946 H   0  0  0  0  0  0  0  0  0  0  0  0
   14.8878    4.7997   16.6755 H   0  0  0  0  0  0  0  0  0  0  0  0
   16.6252    4.5280   16.7712 H   0  0  0  0  0  0  0  0  0  0  0  0
   17.5455    2.3154   16.2589 H   0  0  0  0  0  0  0  0  0  0  0  0
   15.0979   -1.1674   17.7035 H   0  0  0  0  0  0  0  0  0  0  0  0
   13.8309   -3.2565   17.8818 H   0  0  0  0  0  0  0  0  0  0  0  0
   11.0889   -4.1997   15.7107 H   0  0  0  0  0  0  0  0  0  0  0  0
   12.1621   -4.6946   16.9209 H   0  0  0  0  0  0  0  0  0  0  0  0
   11.3688   -2.0504   14.5658 H   0  0  0  0  0  0  0  0  0  0  0  0
   12.6834    0.0104   14.3390 H   0  0  0  0  0  0  0  0  0  0  0  0
   12.4811    2.0527   17.4368 H   0  0  0  0  0  0  0  0  0  0  0  0
   12.9806    3.6777   17.0495 H   0  0  0  0  0  0  0  0  0  0  0  0
   12.7005    2.1855   14.6864 H   0  0  0  0  0  0  0  0  0  0  0  0
   10.2768    2.6196   16.3085 H   0  0  0  0  0  0  0  0  0  0  0  0
   10.3508    2.0609   14.6383 H   0  0  0  0  0  0  0  0  0  0  0  0
   10.9419    1.0161   15.9321 H   0  0  0  0  0  0  0  0  0  0  0  0
  1  2  1  0
  2  3  1  0
  3  4  1  0
  4  5  2  0
  5  6  1  0
  6  7  1  0
  7  8  2  0
  8  9  1  0
  9 10  2  0
 10 11  1  0
 10 12  1  0
 12 13  2  0
  6 14  2  0
 14 15  1  0
 15 16  1  0
 16 17  1  0
 14  3  1  0
 13  7  1  0
  1 18  1  0
  1 19  1  0
  1 20  1  0
  2 21  1  0
  2 22  1  0
  4 23  1  0
  8 24  1  0
  9 25  1  0
 11 26  1  0
 11 27  1  0
 12 28  1  0
 13 29  1  0
 15 30  1  0
 15 31  1  0
 16 32  1  0
 17 33  1  0
 17 34  1  0
 17 35  1  0
M  END
>  <Energy>  (496) 
5.4636697998034984

>  <compound_id>  (496) 
3473

>  <target_id>  (496) 
1

>  <reference_id>  (496) 
118

>  <inspiration_ids>  (496) 
[118, 113]

>  <energy_score>  (496) 
-21.342724425573635

>  <distance_score>  (496) 
1.2732763835231975

>  <path>  (496) 
/opt/xchem-fragalysis-2/maxwin/BulkDock/SCRATCH/505734/C3473-P118/C3473-P118.minimised.mol

>  <scratch_subdir>  (496) 
/opt/xchem-fragalysis-2/maxwin/BulkDock/SCRATCH/505734/C3473-P118

>  <fragmenstein_runtime>  (496) 
25.00359797477722

>  <fragmenstein_outcome>  (496) 
too moved

>  <fragmenstein_mode>  (496) 
expansion

>  <fragmenstein_error>  (496) 


$$$$
C3473-P113
     RDKit          3D

 35 36  0  0  0  0  0  0  0  0999 V2000
   15.5904    4.1937   18.6727 C   0  0  0  0  0  0  0  0  0  0  0  0
   15.6550    4.1561   17.1540 C   0  0  0  0  0  0  0  0  0  0  0  0
   15.4715    2.8209   16.6176 N   0  0  0  0  0  0  0  0  0  0  0  0
   16.5008    1.9998   16.2566 C   0  0  0  0  0  0  0  0  0  0  0  0
   16.0797    0.7991   15.9465 N   0  0  0  0  0  0  0  0  0  0  0  0
   14.7192    0.8393   16.0936 C   0  0  0  0  0  0  0  0  0  0  0  0
   13.9299   -0.3809   16.0873 C   0  0  0  0  0  0  0  0  0  0  0  0
   14.1688   -1.2831   17.1275 C   0  0  0  0  0  0  0  0  0  0  0  0
   13.4494   -2.4693   17.2184 C   0  0  0  0  0  0  0  0  0  0  0  0
   12.4860   -2.7845   16.2644 C   0  0  0  0  0  0  0  0  0  0  0  0
   11.6612   -3.8750   16.4788 N   0  0  0  0  0  0  0  0  0  0  0  0
   12.2343   -1.8863   15.2272 C   0  0  0  0  0  0  0  0  0  0  0  0
   12.9819   -0.7063   15.1136 C   0  0  0  0  0  0  0  0  0  0  0  0
   14.2979    2.1179   16.4454 C   0  0  0  0  0  0  0  0  0  0  0  0
   12.9438    2.6621   16.7058 C   0  0  0  0  0  0  0  0  0  0  0  0
   12.1566    2.6242   15.4821 N   0  0  0  0  0  0  0  0  0  0  0  0
   10.8917    1.9403   15.6898 C   0  0  0  0  0  0  0  0  0  0  0  0
   16.3616    3.5537   19.1144 H   0  0  0  0  0  0  0  0  0  0  0  0
   14.6192    3.8462   19.0397 H   0  0  0  0  0  0  0  0  0  0  0  0
   15.7455    5.2150   19.0336 H   0  0  0  0  0  0  0  0  0  0  0  0
   14.8936    4.8051   16.7098 H   0  0  0  0  0  0  0  0  0  0  0  0
   16.6292    4.5236   16.8113 H   0  0  0  0  0  0  0  0  0  0  0  0
   17.5359    2.3160   16.2621 H   0  0  0  0  0  0  0  0  0  0  0  0
   14.9195   -1.0564   17.8822 H   0  0  0  0  0  0  0  0  0  0  0  0
   13.6261   -3.1330   18.0604 H   0  0  0  0  0  0  0  0  0  0  0  0
   11.0775   -4.1901   15.7078 H   0  0  0  0  0  0  0  0  0  0  0  0
   12.0658   -4.6382   17.0069 H   0  0  0  0  0  0  0  0  0  0  0  0
   11.4645   -2.0988   14.4878 H   0  0  0  0  0  0  0  0  0  0  0  0
   12.8063   -0.0477   14.2692 H   0  0  0  0  0  0  0  0  0  0  0  0
   12.4974    2.0785   17.5170 H   0  0  0  0  0  0  0  0  0  0  0  0
   12.9735    3.6964   17.0591 H   0  0  0  0  0  0  0  0  0  0  0  0
   12.6811    2.1523   14.7479 H   0  0  0  0  0  0  0  0  0  0  0  0
   10.2618    2.4950   16.3933 H   0  0  0  0  0  0  0  0  0  0  0  0
   10.3502    1.8888   14.7407 H   0  0  0  0  0  0  0  0  0  0  0  0
   11.0116    0.9202   16.0600 H   0  0  0  0  0  0  0  0  0  0  0  0
  1  2  1  0
  2  3  1  0
  3  4  1  0
  4  5  2  0
  5  6  1  0
  6  7  1  0
  7  8  2  0
  8  9  1  0
  9 10  2  0
 10 11  1  0
 10 12  1  0
 12 13  2  0
  6 14  2  0
 14 15  1  0
 15 16  1  0
 16 17  1  0
 14  3  1  0
 13  7  1  0
  1 18  1  0
  1 19  1  0
  1 20  1  0
  2 21  1  0
  2 22  1  0
  4 23  1  0
  8 24  1  0
  9 25  1  0
 11 26  1  0
 11 27  1  0
 12 28  1  0
 13 29  1  0
 15 30  1  0
 15 31  1  0
 16 32  1  0
 17 33  1  0
 17 34  1  0
 17 35  1  0
M  END
>  <Energy>  (497) 
5.6834406298354674

>  <compound_id>  (497) 
3473

>  <target_id>  (497) 
1

>  <reference_id>  (497) 
113

>  <inspiration_ids>  (497) 
[118, 113]

>  <energy_score>  (497) 
-21.12295359554372

>  <distance_score>  (497) 
1.2524551115645275

>  <path>  (497) 
/opt/xchem-fragalysis-2/maxwin/BulkDock/SCRATCH/505734/C3473-P113/C3473-P113.minimised.mol

>  <scratch_subdir>  (497) 
/opt/xchem-fragalysis-2/maxwin/BulkDock/SCRATCH/505734/C3473-P113

>  <fragmenstein_runtime>  (497) 
26.526552438735962

>  <fragmenstein_outcome>  (497) 
too moved

>  <fragmenstein_mode>  (497) 
expansion

>  <fragmenstein_error>  (497) 


$$$$
C3475-P118
     RDKit          3D

 39 41  0  0  0  0  0  0  0  0999 V2000
   14.7769    1.2549   17.1706 C   0  0  0  0  0  0  0  0  0  0  0  0
   13.3194    1.2915   16.7340 C   0  0  0  0  0  0  0  0  0  0  0  0
   13.1172    1.9013   15.4110 N   0  0  0  0  0  0  0  0  0  0  0  0
   11.9361    2.7751   15.4450 C   0  0  0  0  0  0  0  0  0  0  0  0
   10.7777    2.0106   15.0093 N   0  0  0  0  0  0  0  0  0  0  0  0
   11.2964    0.7450   14.4757 C   0  0  0  0  0  0  0  0  0  0  0  0
   12.8131    0.9665   14.2841 C   0  0  0  0  0  0  0  0  0  0  0  0
   13.0473    1.7417   12.9320 C   0  0  0  0  0  0  0  0  0  0  0  0
   14.5179    2.0127   12.5940 C   0  0  0  0  0  0  0  0  0  0  0  0
   14.7572    3.4521   12.4475 N   0  0  0  0  0  0  0  0  0  0  0  0
   15.4838    1.3977   13.6048 C   0  0  0  0  0  0  0  0  0  0  0  0
   15.1328   -0.0605   13.9441 C   0  0  0  0  0  0  0  0  0  0  0  0
   13.6274   -0.3472   14.1120 C   0  0  0  0  0  0  0  0  0  0  0  0
   13.3084   -1.4432   15.0855 C   0  0  0  0  0  0  0  0  0  0  0  0
   13.9214   -1.8644   16.1725 N   0  0  0  0  0  0  0  0  0  0  0  0
   13.0783   -2.8452   16.6185 C   0  0  0  0  0  0  0  0  0  0  0  0
   11.9867   -3.0401   15.8778 N   0  0  0  0  0  0  0  0  0  0  0  0
   12.1519   -2.1369   14.8305 O   0  0  0  0  0  0  0  0  0  0  0  0
   14.8378    0.9742   18.2280 H   0  0  0  0  0  0  0  0  0  0  0  0
   15.2453    2.2393   17.0658 H   0  0  0  0  0  0  0  0  0  0  0  0
   15.3674    0.5302   16.6163 H   0  0  0  0  0  0  0  0  0  0  0  0
   12.8419    0.3193   16.8417 H   0  0  0  0  0  0  0  0  0  0  0  0
   12.8434    1.9167   17.5000 H   0  0  0  0  0  0  0  0  0  0  0  0
   12.0998    3.6209   14.7659 H   0  0  0  0  0  0  0  0  0  0  0  0
   11.7457    3.2417   16.4183 H   0  0  0  0  0  0  0  0  0  0  0  0
   10.3233    2.5188   14.2512 H   0  0  0  0  0  0  0  0  0  0  0  0
   10.7873    0.4745   13.5447 H   0  0  0  0  0  0  0  0  0  0  0  0
   11.0635   -0.0171   15.2234 H   0  0  0  0  0  0  0  0  0  0  0  0
   12.6254    1.1383   12.1132 H   0  0  0  0  0  0  0  0  0  0  0  0
   12.4603    2.6667   12.8751 H   0  0  0  0  0  0  0  0  0  0  0  0
   14.7209    1.5612   11.6144 H   0  0  0  0  0  0  0  0  0  0  0  0
   14.5732    3.9039   13.3454 H   0  0  0  0  0  0  0  0  0  0  0  0
   15.7466    3.6141   12.2609 H   0  0  0  0  0  0  0  0  0  0  0  0
   16.5058    1.4278   13.2044 H   0  0  0  0  0  0  0  0  0  0  0  0
   15.5220    1.9947   14.5219 H   0  0  0  0  0  0  0  0  0  0  0  0
   15.7189   -0.3836   14.8090 H   0  0  0  0  0  0  0  0  0  0  0  0
   15.4988   -0.6939   13.1230 H   0  0  0  0  0  0  0  0  0  0  0  0
   13.3116   -0.7719   13.1439 H   0  0  0  0  0  0  0  0  0  0  0  0
   13.2583   -3.4292   17.5107 H   0  0  0  0  0  0  0  0  0  0  0  0
  1  2  1  0
  2  3  1  0
  3  4  1  0
  4  5  1  0
  5  6  1  0
  6  7  1  0
  7  8  1  0
  8  9  1  0
  9 10  1  0
  9 11  1  0
 11 12  1  0
 12 13  1  0
 13 14  1  0
 14 15  2  0
 15 16  1  0
 16 17  2  0
 17 18  1  0
  7  3  1  0
 18 14  1  0
 13  7  1  0
  1 19  1  0
  1 20  1  0
  1 21  1  0
  2 22  1  0
  2 23  1  0
  4 24  1  0
  4 25  1  0
  5 26  1  0
  6 27  1  0
  6 28  1  0
  8 29  1  0
  8 30  1  0
  9 31  1  0
 10 32  1  0
 10 33  1  0
 11 34  1  0
 11 35  1  0
 12 36  1  0
 12 37  1  0
 13 38  1  0
 16 39  1  0
M  END
>  <Energy>  (498) 
33.968298085000967

>  <compound_id>  (498) 
3475

>  <target_id>  (498) 
1

>  <reference_id>  (498) 
118

>  <inspiration_ids>  (498) 
[118, 120]

>  <energy_score>  (498) 
-34.429851972426206

>  <distance_score>  (498) 
1.8946989803709184

>  <path>  (498) 
/opt/xchem-fragalysis-2/maxwin/BulkDock/SCRATCH/505734/C3475-P118/C3475-P118.minimised.mol

>  <scratch_subdir>  (498) 
/opt/xchem-fragalysis-2/maxwin/BulkDock/SCRATCH/505734/C3475-P118

>  <fragmenstein_runtime>  (498) 
7.211838960647583

>  <fragmenstein_outcome>  (498) 
too moved

>  <fragmenstein_mode>  (498) 
expansion

>  <fragmenstein_error>  (498) 


$$$$
C3475-P120
     RDKit          3D

 39 41  0  0  0  0  0  0  0  0999 V2000
   14.0352    2.1415   17.8555 C   0  0  0  0  0  0  0  0  0  0  0  0
   13.6073    1.1590   16.7630 C   0  0  0  0  0  0  0  0  0  0  0  0
   13.0515    1.8415   15.5924 N   0  0  0  0  0  0  0  0  0  0  0  0
   11.8009    2.5363   15.9134 C   0  0  0  0  0  0  0  0  0  0  0  0
   10.7489    2.0585   15.0237 N   0  0  0  0  0  0  0  0  0  0  0  0
   11.2633    0.7846   14.5151 C   0  0  0  0  0  0  0  0  0  0  0  0
   12.7807    1.0271   14.3788 C   0  0  0  0  0  0  0  0  0  0  0  0
   13.0419    1.9814   13.1478 C   0  0  0  0  0  0  0  0  0  0  0  0
   14.4866    2.0125   12.6386 C   0  0  0  0  0  0  0  0  0  0  0  0
   14.8485    3.3592   12.1942 N   0  0  0  0  0  0  0  0  0  0  0  0
   15.4639    1.4817   13.6779 C   0  0  0  0  0  0  0  0  0  0  0  0
   15.1168    0.0330   14.0667 C   0  0  0  0  0  0  0  0  0  0  0  0
   13.6013   -0.2657   14.1236 C   0  0  0  0  0  0  0  0  0  0  0  0
   13.2435   -1.4227   15.0136 C   0  0  0  0  0  0  0  0  0  0  0  0
   13.8043   -1.8983   16.1070 N   0  0  0  0  0  0  0  0  0  0  0  0
   12.9557   -2.9161   16.4465 C   0  0  0  0  0  0  0  0  0  0  0  0
   11.9126   -3.0851   15.6341 N   0  0  0  0  0  0  0  0  0  0  0  0
   12.1147   -2.1146   14.6553 O   0  0  0  0  0  0  0  0  0  0  0  0
   13.1915    2.6887   18.2840 H   0  0  0  0  0  0  0  0  0  0  0  0
   14.7538    2.8703   17.4651 H   0  0  0  0  0  0  0  0  0  0  0  0
   14.5216    1.5977   18.6724 H   0  0  0  0  0  0  0  0  0  0  0  0
   14.5219    0.6275   16.5084 H   0  0  0  0  0  0  0  0  0  0  0  0
   12.9073    0.4278   17.1739 H   0  0  0  0  0  0  0  0  0  0  0  0
   11.9347    3.6171   15.7921 H   0  0  0  0  0  0  0  0  0  0  0  0
   11.4625    2.3733   16.9392 H   0  0  0  0  0  0  0  0  0  0  0  0
   10.6882    2.7108   14.2441 H   0  0  0  0  0  0  0  0  0  0  0  0
   10.7851    0.5185   13.5671 H   0  0  0  0  0  0  0  0  0  0  0  0
   11.0141    0.0161   15.2536 H   0  0  0  0  0  0  0  0  0  0  0  0
   12.3991    1.6747   12.3095 H   0  0  0  0  0  0  0  0  0  0  0  0
   12.7145    3.0046   13.3807 H   0  0  0  0  0  0  0  0  0  0  0  0
   14.5487    1.3583   11.7585 H   0  0  0  0  0  0  0  0  0  0  0  0
   15.8001    3.3617   11.8301 H   0  0  0  0  0  0  0  0  0  0  0  0
   14.2404    3.6510   11.4311 H   0  0  0  0  0  0  0  0  0  0  0  0
   16.4884    1.4991   13.2844 H   0  0  0  0  0  0  0  0  0  0  0  0
   15.4760    2.1231   14.5668 H   0  0  0  0  0  0  0  0  0  0  0  0
   15.6374   -0.2241   14.9954 H   0  0  0  0  0  0  0  0  0  0  0  0
   15.5565   -0.6393   13.3160 H   0  0  0  0  0  0  0  0  0  0  0  0
   13.3299   -0.6040   13.1106 H   0  0  0  0  0  0  0  0  0  0  0  0
   13.0930   -3.5471   17.3135 H   0  0  0  0  0  0  0  0  0  0  0  0
  1  2  1  0
  2  3  1  0
  3  4  1  0
  4  5  1  0
  5  6  1  0
  6  7  1  0
  7  8  1  0
  8  9  1  0
  9 10  1  0
  9 11  1  0
 11 12  1  0
 12 13  1  0
 13 14  1  0
 14 15  2  0
 15 16  1  0
 16 17  2  0
 17 18  1  0
  7  3  1  0
 18 14  1  0
 13  7  1  0
  1 19  1  0
  1 20  1  0
  1 21  1  0
  2 22  1  0
  2 23  1  0
  4 24  1  0
  4 25  1  0
  5 26  1  0
  6 27  1  0
  6 28  1  0
  8 29  1  0
  8 30  1  0
  9 31  1  0
 10 32  1  0
 10 33  1  0
 11 34  1  0
 11 35  1  0
 12 36  1  0
 12 37  1  0
 13 38  1  0
 16 39  1  0
M  END
>  <Energy>  (499) 
27.600504550335234

>  <compound_id>  (499) 
3475

>  <target_id>  (499) 
1

>  <reference_id>  (499) 
120

>  <inspiration_ids>  (499) 
[118, 120]

>  <energy_score>  (499) 
-40.79764550709265

>  <distance_score>  (499) 
1.8964093432890612

>  <path>  (499) 
/opt/xchem-fragalysis-2/maxwin/BulkDock/SCRATCH/505734/C3475-P120/C3475-P120.minimised.mol

>  <scratch_subdir>  (499) 
/opt/xchem-fragalysis-2/maxwin/BulkDock/SCRATCH/505734/C3475-P120

>  <fragmenstein_runtime>  (499) 
6.881260633468628

>  <fragmenstein_outcome>  (499) 
too moved

>  <fragmenstein_mode>  (499) 
expansion

>  <fragmenstein_error>  (499) 


$$$$
C3472-P118
     RDKit          3D

 22 23  0  0  0  0  0  0  0  0999 V2000
   17.3718   -2.6424   13.7670 N   0  0  0  0  0  0  0  0  0  0  0  0
   16.9337   -2.5323   14.8373 C   0  0  0  0  0  0  0  0  0  0  0  0
   16.4468   -2.3257   16.1634 C   0  0  0  0  0  0  0  0  0  0  0  0
   17.3151   -2.4990   17.2100 N   0  0  0  0  0  0  0  0  0  0  0  0
   16.6474   -2.1454   18.2769 C   0  0  0  0  0  0  0  0  0  0  0  0
   15.3782   -1.7792   17.9695 N   0  0  0  0  0  0  0  0  0  0  0  0
   15.2236   -1.8425   16.5999 C   0  0  0  0  0  0  0  0  0  0  0  0
   14.0158   -1.3732   15.9435 C   0  0  0  0  0  0  0  0  0  0  0  0
   13.5785   -1.8706   14.7196 C   0  0  0  0  0  0  0  0  0  0  0  0
   12.4350   -1.3643   14.1071 C   0  0  0  0  0  0  0  0  0  0  0  0
   11.7378   -0.3119   14.6828 C   0  0  0  0  0  0  0  0  0  0  0  0
   10.7273    0.3268   13.9686 N   0  0  0  0  0  0  0  0  0  0  0  0
   12.2384    0.2635   15.8412 C   0  0  0  0  0  0  0  0  0  0  0  0
   13.3340   -0.2886   16.4944 C   0  0  0  0  0  0  0  0  0  0  0  0
   17.0237   -2.1551   19.2919 H   0  0  0  0  0  0  0  0  0  0  0  0
   14.6724   -1.5070   18.6385 H   0  0  0  0  0  0  0  0  0  0  0  0
   14.1634   -2.5957   14.1690 H   0  0  0  0  0  0  0  0  0  0  0  0
   12.1302   -1.7610   13.1429 H   0  0  0  0  0  0  0  0  0  0  0  0
   10.0658    0.8407   14.5358 H   0  0  0  0  0  0  0  0  0  0  0  0
   10.2189   -0.3242   13.3479 H   0  0  0  0  0  0  0  0  0  0  0  0
   11.7920    1.1778   16.2217 H   0  0  0  0  0  0  0  0  0  0  0  0
   13.7009    0.2166   17.3834 H   0  0  0  0  0  0  0  0  0  0  0  0
  1  2  3  0
  2  3  1  0
  3  4  1  0
  4  5  2  0
  5  6  1  0
  6  7  1  0
  7  8  1  0
  8  9  2  0
  9 10  1  0
 10 11  2  0
 11 12  1  0
 11 13  1  0
 13 14  2  0
  7  3  2  0
 14  8  1  0
  5 15  1  0
  6 16  1  0
  9 17  1  0
 10 18  1  0
 12 19  1  0
 12 20  1  0
 13 21  1  0
 14 22  1  0
M  END
>  <Energy>  (500) 
42.689705535691438

>  <compound_id>  (500) 
3472

>  <target_id>  (500) 
1

>  <reference_id>  (500) 
118

>  <inspiration_ids>  (500) 
[118, 124]

>  <energy_score>  (500) 
-21.356362785671138

>  <distance_score>  (500) 
2.0981612309960247

>  <path>  (500) 
/opt/xchem-fragalysis-2/maxwin/BulkDock/SCRATCH/505734/C3472-P118/C3472-P118.minimised.mol

>  <scratch_subdir>  (500) 
/opt/xchem-fragalysis-2/maxwin/BulkDock/SCRATCH/505734/C3472-P118

>  <fragmenstein_runtime>  (500) 
12.157153129577637

>  <fragmenstein_outcome>  (500) 
too moved

>  <fragmenstein_mode>  (500) 
expansion

>  <fragmenstein_error>  (500) 


$$$$
C3472-P124
     RDKit          3D

 22 23  0  0  0  0  0  0  0  0999 V2000
   17.7148   -3.2924   14.2469 N   0  0  0  0  0  0  0  0  0  0  0  0
   17.1754   -3.1668   15.2675 C   0  0  0  0  0  0  0  0  0  0  0  0
   16.5318   -2.9270   16.5234 C   0  0  0  0  0  0  0  0  0  0  0  0
   17.2723   -2.8208   17.6685 N   0  0  0  0  0  0  0  0  0  0  0  0
   16.4423   -2.3769   18.5801 C   0  0  0  0  0  0  0  0  0  0  0  0
   15.1844   -2.2342   18.0855 N   0  0  0  0  0  0  0  0  0  0  0  0
   15.2129   -2.5798   16.7563 C   0  0  0  0  0  0  0  0  0  0  0  0
   14.1869   -2.1587   15.8393 C   0  0  0  0  0  0  0  0  0  0  0  0
   12.9371   -2.7657   15.7070 C   0  0  0  0  0  0  0  0  0  0  0  0
   11.9966   -2.1851   14.8534 C   0  0  0  0  0  0  0  0  0  0  0  0
   12.3145   -1.0147   14.1566 C   0  0  0  0  0  0  0  0  0  0  0  0
   11.3466   -0.2607   13.4908 N   0  0  0  0  0  0  0  0  0  0  0  0
   13.5623   -0.4272   14.2998 C   0  0  0  0  0  0  0  0  0  0  0  0
   14.4964   -0.9993   15.1274 C   0  0  0  0  0  0  0  0  0  0  0  0
   16.6948   -2.1482   19.6080 H   0  0  0  0  0  0  0  0  0  0  0  0
   14.3997   -1.8474   18.5874 H   0  0  0  0  0  0  0  0  0  0  0  0
   12.6889   -3.6686   16.2582 H   0  0  0  0  0  0  0  0  0  0  0  0
   11.0115   -2.6317   14.7485 H   0  0  0  0  0  0  0  0  0  0  0  0
   10.4880   -0.7856   13.2827 H   0  0  0  0  0  0  0  0  0  0  0  0
   11.1195    0.5786   14.0327 H   0  0  0  0  0  0  0  0  0  0  0  0
   13.7899    0.4986   13.7775 H   0  0  0  0  0  0  0  0  0  0  0  0
   15.4616   -0.5065   15.2302 H   0  0  0  0  0  0  0  0  0  0  0  0
  1  2  3  0
  2  3  1  0
  3  4  1  0
  4  5  2  0
  5  6  1  0
  6  7  1  0
  7  8  1  0
  8  9  2  0
  9 10  1  0
 10 11  2  0
 11 12  1  0
 11 13  1  0
 13 14  2  0
  7  3  2  0
 14  8  1  0
  5 15  1  0
  6 16  1  0
  9 17  1  0
 10 18  1  0
 12 19  1  0
 12 20  1  0
 13 21  1  0
 14 22  1  0
M  END
>  <Energy>  (501) 
50.137266414571002

>  <compound_id>  (501) 
3472

>  <target_id>  (501) 
1

>  <reference_id>  (501) 
124

>  <inspiration_ids>  (501) 
[118, 124]

>  <energy_score>  (501) 
-13.908801906790416

>  <distance_score>  (501) 
1.9908116652269112

>  <path>  (501) 
/opt/xchem-fragalysis-2/maxwin/BulkDock/SCRATCH/505734/C3472-P124/C3472-P124.minimised.mol

>  <scratch_subdir>  (501) 
/opt/xchem-fragalysis-2/maxwin/BulkDock/SCRATCH/505734/C3472-P124

>  <fragmenstein_runtime>  (501) 
11.025689601898193

>  <fragmenstein_outcome>  (501) 
too moved

>  <fragmenstein_mode>  (501) 
expansion

>  <fragmenstein_error>  (501) 


$$$$
C3478-P118
     RDKit          3D

 40 42  0  0  0  0  0  0  0  0999 V2000
   11.3504   -3.5741   16.0683 N   0  0  0  0  0  0  0  0  0  0  0  0
   12.5731   -2.9263   16.0834 C   0  0  0  0  0  0  0  0  0  0  0  0
   13.4630   -3.1608   17.1207 C   0  0  0  0  0  0  0  0  0  0  0  0
   14.6893   -2.5082   17.1516 C   0  0  0  0  0  0  0  0  0  0  0  0
   15.0473   -1.5759   16.1695 C   0  0  0  0  0  0  0  0  0  0  0  0
   16.4085   -0.8646   16.2111 C   0  0  0  0  0  0  0  0  0  0  0  0
   16.4573    0.0346   17.3823 N   0  0  0  0  0  0  0  0  0  0  0  0
   17.1768   -0.6672   18.4352 C   0  0  0  0  0  0  0  0  0  0  0  0
   17.7621   -1.8704   17.8619 N   0  0  0  0  0  0  0  0  0  0  0  0
   17.7448   -1.6689   16.3974 C   0  0  0  0  0  0  0  0  0  0  0  0
   19.0128   -0.8362   16.0198 C   0  0  0  0  0  0  0  0  0  0  0  0
   19.2157   -0.6884   14.5128 C   0  0  0  0  0  0  0  0  0  0  0  0
   19.2615   -2.0505   13.8255 C   0  0  0  0  0  0  0  0  0  0  0  0
   19.3893   -1.8688   12.3813 N   0  0  0  0  0  0  0  0  0  0  0  0
   18.0183   -2.8764   14.1607 C   0  0  0  0  0  0  0  0  0  0  0  0
   17.8191   -3.0234   15.6706 C   0  0  0  0  0  0  0  0  0  0  0  0
   14.0864   -1.2613   15.1925 C   0  0  0  0  0  0  0  0  0  0  0  0
   12.8522   -1.9194   15.1637 C   0  0  0  0  0  0  0  0  0  0  0  0
   11.3318   -4.4882   16.5131 H   0  0  0  0  0  0  0  0  0  0  0  0
   10.8931   -3.6019   15.1599 H   0  0  0  0  0  0  0  0  0  0  0  0
   13.2198   -3.8760   17.9023 H   0  0  0  0  0  0  0  0  0  0  0  0
   15.3731   -2.7608   17.9574 H   0  0  0  0  0  0  0  0  0  0  0  0
   16.4811   -0.2455   15.3099 H   0  0  0  0  0  0  0  0  0  0  0  0
   15.5104    0.2397   17.6922 H   0  0  0  0  0  0  0  0  0  0  0  0
   17.9553   -0.0101   18.8374 H   0  0  0  0  0  0  0  0  0  0  0  0
   16.5101   -0.9357   19.2611 H   0  0  0  0  0  0  0  0  0  0  0  0
   18.7107   -1.9902   18.2075 H   0  0  0  0  0  0  0  0  0  0  0  0
   19.9065   -1.3251   16.4333 H   0  0  0  0  0  0  0  0  0  0  0  0
   18.9843    0.1660   16.4645 H   0  0  0  0  0  0  0  0  0  0  0  0
   20.1514   -0.1450   14.3298 H   0  0  0  0  0  0  0  0  0  0  0  0
   18.4114   -0.0720   14.0925 H   0  0  0  0  0  0  0  0  0  0  0  0
   20.1500   -2.5905   14.1755 H   0  0  0  0  0  0  0  0  0  0  0  0
   18.5660   -1.3912   12.0147 H   0  0  0  0  0  0  0  0  0  0  0  0
   19.4069   -2.7773   11.9181 H   0  0  0  0  0  0  0  0  0  0  0  0
   17.1225   -2.4232   13.7175 H   0  0  0  0  0  0  0  0  0  0  0  0
   18.1277   -3.8736   13.7214 H   0  0  0  0  0  0  0  0  0  0  0  0
   18.6638   -3.6031   16.0691 H   0  0  0  0  0  0  0  0  0  0  0  0
   16.9290   -3.6332   15.8587 H   0  0  0  0  0  0  0  0  0  0  0  0
   14.2969   -0.5035   14.4414 H   0  0  0  0  0  0  0  0  0  0  0  0
   12.1272   -1.6611   14.3949 H   0  0  0  0  0  0  0  0  0  0  0  0
  1  2  1  0
  2  3  2  0
  3  4  1  0
  4  5  2  0
  5  6  1  0
  6  7  1  0
  7  8  1  0
  8  9  1  0
  9 10  1  0
 10 11  1  0
 11 12  1  0
 12 13  1  0
 13 14  1  0
 13 15  1  0
 15 16  1  0
  5 17  1  0
 17 18  2  0
 18  2  1  0
 10  6  1  0
 16 10  1  0
  1 19  1  0
  1 20  1  0
  3 21  1  0
  4 22  1  0
  6 23  1  0
  7 24  1  0
  8 25  1  0
  8 26  1  0
  9 27  1  0
 11 28  1  0
 11 29  1  0
 12 30  1  0
 12 31  1  0
 13 32  1  0
 14 33  1  0
 14 34  1  0
 15 35  1  0
 15 36  1  0
 16 37  1  0
 16 38  1  0
 17 39  1  0
 18 40  1  0
M  END
>  <Energy>  (502) 
6.4771518577850031

>  <compound_id>  (502) 
3478

>  <target_id>  (502) 
1

>  <reference_id>  (502) 
118

>  <inspiration_ids>  (502) 
[118, 191]

>  <energy_score>  (502) 
-49.10563504163076

>  <distance_score>  (502) 
1.6172001981191197

>  <path>  (502) 
/opt/xchem-fragalysis-2/maxwin/BulkDock/SCRATCH/505734/C3478-P118/C3478-P118.minimised.mol

>  <scratch_subdir>  (502) 
/opt/xchem-fragalysis-2/maxwin/BulkDock/SCRATCH/505734/C3478-P118

>  <fragmenstein_runtime>  (502) 
8.275693416595459

>  <fragmenstein_outcome>  (502) 
too moved

>  <fragmenstein_mode>  (502) 
expansion

>  <fragmenstein_error>  (502) 


$$$$
C3478-P191
     RDKit          3D

 40 42  0  0  0  0  0  0  0  0999 V2000
   11.4860   -3.7162   16.1486 N   0  0  0  0  0  0  0  0  0  0  0  0
   12.7009   -3.0594   16.1035 C   0  0  0  0  0  0  0  0  0  0  0  0
   13.5596   -3.1458   17.1886 C   0  0  0  0  0  0  0  0  0  0  0  0
   14.7651   -2.4566   17.1849 C   0  0  0  0  0  0  0  0  0  0  0  0
   15.1307   -1.6236   16.1194 C   0  0  0  0  0  0  0  0  0  0  0  0
   16.4668   -0.8643   16.1363 C   0  0  0  0  0  0  0  0  0  0  0  0
   16.4801    0.0907   17.2629 N   0  0  0  0  0  0  0  0  0  0  0  0
   17.2206   -0.5316   18.3512 C   0  0  0  0  0  0  0  0  0  0  0  0
   17.8250   -1.7550   17.8437 N   0  0  0  0  0  0  0  0  0  0  0  0
   17.8222   -1.6223   16.3721 C   0  0  0  0  0  0  0  0  0  0  0  0
   19.0712   -0.7738   15.9695 C   0  0  0  0  0  0  0  0  0  0  0  0
   19.2921   -0.6969   14.4600 C   0  0  0  0  0  0  0  0  0  0  0  0
   19.3963   -2.0914   13.8496 C   0  0  0  0  0  0  0  0  0  0  0  0
   19.5490   -1.9880   12.4011 N   0  0  0  0  0  0  0  0  0  0  0  0
   18.1711   -2.9352   14.2035 C   0  0  0  0  0  0  0  0  0  0  0  0
   17.9394   -3.0087   15.7142 C   0  0  0  0  0  0  0  0  0  0  0  0
   14.2011   -1.4581   15.0779 C   0  0  0  0  0  0  0  0  0  0  0  0
   12.9908   -2.1622   15.0798 C   0  0  0  0  0  0  0  0  0  0  0  0
   11.4544   -4.5405   16.7428 H   0  0  0  0  0  0  0  0  0  0  0  0
   11.0427   -3.8994   15.2533 H   0  0  0  0  0  0  0  0  0  0  0  0
   13.3090   -3.7739   18.0408 H   0  0  0  0  0  0  0  0  0  0  0  0
   15.4236   -2.5994   18.0373 H   0  0  0  0  0  0  0  0  0  0  0  0
   16.5281   -0.2868   15.2071 H   0  0  0  0  0  0  0  0  0  0  0  0
   15.5257    0.2822   17.5593 H   0  0  0  0  0  0  0  0  0  0  0  0
   17.9894    0.1635   18.7053 H   0  0  0  0  0  0  0  0  0  0  0  0
   16.5666   -0.7612   19.1986 H   0  0  0  0  0  0  0  0  0  0  0  0
   18.7702   -1.8483   18.2071 H   0  0  0  0  0  0  0  0  0  0  0  0
   19.9721   -1.2144   16.4199 H   0  0  0  0  0  0  0  0  0  0  0  0
   19.0081    0.2489   16.3608 H   0  0  0  0  0  0  0  0  0  0  0  0
   20.2114   -0.1315   14.2616 H   0  0  0  0  0  0  0  0  0  0  0  0
   18.4735   -0.1329   13.9959 H   0  0  0  0  0  0  0  0  0  0  0  0
   20.2927   -2.5831   14.2476 H   0  0  0  0  0  0  0  0  0  0  0  0
   18.7245   -1.5582   11.9848 H   0  0  0  0  0  0  0  0  0  0  0  0
   19.6156   -2.9203   11.9908 H   0  0  0  0  0  0  0  0  0  0  0  0
   17.2729   -2.5342   13.7170 H   0  0  0  0  0  0  0  0  0  0  0  0
   18.3234   -3.9508   13.8217 H   0  0  0  0  0  0  0  0  0  0  0  0
   18.7869   -3.5495   16.1591 H   0  0  0  0  0  0  0  0  0  0  0  0
   17.0577   -3.6271   15.9144 H   0  0  0  0  0  0  0  0  0  0  0  0
   14.4122   -0.7777   14.2559 H   0  0  0  0  0  0  0  0  0  0  0  0
   12.2858   -2.0110   14.2661 H   0  0  0  0  0  0  0  0  0  0  0  0
  1  2  1  0
  2  3  2  0
  3  4  1  0
  4  5  2  0
  5  6  1  0
  6  7  1  0
  7  8  1  0
  8  9  1  0
  9 10  1  0
 10 11  1  0
 11 12  1  0
 12 13  1  0
 13 14  1  0
 13 15  1  0
 15 16  1  0
  5 17  1  0
 17 18  2  0
 18  2  1  0
 10  6  1  0
 16 10  1  0
  1 19  1  0
  1 20  1  0
  3 21  1  0
  4 22  1  0
  6 23  1  0
  7 24  1  0
  8 25  1  0
  8 26  1  0
  9 27  1  0
 11 28  1  0
 11 29  1  0
 12 30  1  0
 12 31  1  0
 13 32  1  0
 14 33  1  0
 14 34  1  0
 15 35  1  0
 15 36  1  0
 16 37  1  0
 16 38  1  0
 17 39  1  0
 18 40  1  0
M  END
>  <Energy>  (503) 
6.7814179367368261

>  <compound_id>  (503) 
3478

>  <target_id>  (503) 
1

>  <reference_id>  (503) 
191

>  <inspiration_ids>  (503) 
[118, 191]

>  <energy_score>  (503) 
-48.80136896267902

>  <distance_score>  (503) 
1.6093868399815772

>  <path>  (503) 
/opt/xchem-fragalysis-2/maxwin/BulkDock/SCRATCH/505734/C3478-P191/C3478-P191.minimised.mol

>  <scratch_subdir>  (503) 
/opt/xchem-fragalysis-2/maxwin/BulkDock/SCRATCH/505734/C3478-P191

>  <fragmenstein_runtime>  (503) 
8.293749570846558

>  <fragmenstein_outcome>  (503) 
too moved

>  <fragmenstein_mode>  (503) 
expansion

>  <fragmenstein_error>  (503) 


$$$$
C2570-P119
     RDKit          3D

 32 32  0  0  0  0  0  0  0  0999 V2000
   -8.7973  -23.2371   29.9808 N   0  0  0  0  0  0  0  0  0  0  0  0
   -9.2411  -24.5366   29.5566 C   0  0  0  0  0  0  0  0  0  0  0  0
  -10.1032  -25.2005   30.5852 C   0  0  0  0  0  0  0  0  0  0  0  0
   -9.6394  -24.9079   31.9992 C   0  0  0  0  0  0  0  0  0  0  0  0
  -10.6462  -24.0852   32.5530 N   0  0  0  0  0  0  0  0  0  0  0  0
  -10.5797  -22.5977   33.1306 S   0  0  0  0  0  0  0  0  0  0  0  0
   -9.3037  -22.3521   33.7382 O   0  0  0  0  0  0  0  0  0  0  0  0
  -11.8118  -22.3354   33.8238 O   0  0  0  0  0  0  0  0  0  0  0  0
  -10.6703  -21.8293   31.6579 N   0  0  0  0  0  0  0  0  0  0  0  0
  -11.7903  -22.1423   30.7191 C   0  0  0  0  0  0  0  0  0  0  0  0
  -11.5258  -21.4311   29.4001 C   0  0  0  0  0  0  0  0  0  0  0  0
  -11.6064  -19.9950   29.6205 N   0  0  0  0  0  0  0  0  0  0  0  0
  -10.8375  -19.5949   30.7946 C   0  0  0  0  0  0  0  0  0  0  0  0
  -10.7930  -20.4334   32.0200 C   0  0  0  0  0  0  0  0  0  0  0  0
   -8.0280  -23.3020   30.6439 H   0  0  0  0  0  0  0  0  0  0  0  0
   -9.5190  -22.7705   30.5430 H   0  0  0  0  0  0  0  0  0  0  0  0
   -9.8057  -24.4363   28.6226 H   0  0  0  0  0  0  0  0  0  0  0  0
   -8.3619  -25.1259   29.3067 H   0  0  0  0  0  0  0  0  0  0  0  0
  -10.1826  -26.2661   30.4059 H   0  0  0  0  0  0  0  0  0  0  0  0
  -11.1262  -24.9005   30.3923 H   0  0  0  0  0  0  0  0  0  0  0  0
   -8.6386  -24.4919   32.1024 H   0  0  0  0  0  0  0  0  0  0  0  0
   -9.6214  -25.8414   32.5660 H   0  0  0  0  0  0  0  0  0  0  0  0
  -11.6036  -24.2942   32.2975 H   0  0  0  0  0  0  0  0  0  0  0  0
  -12.7443  -21.8173   31.1481 H   0  0  0  0  0  0  0  0  0  0  0  0
  -11.8278  -23.1868   30.4785 H   0  0  0  0  0  0  0  0  0  0  0  0
  -12.2672  -21.7329   28.6593 H   0  0  0  0  0  0  0  0  0  0  0  0
  -10.5525  -21.6787   28.9714 H   0  0  0  0  0  0  0  0  0  0  0  0
  -11.2410  -19.5152   28.7882 H   0  0  0  0  0  0  0  0  0  0  0  0
  -11.1753  -18.7101   31.2789 H   0  0  0  0  0  0  0  0  0  0  0  0
   -9.8718  -19.3310   30.4394 H   0  0  0  0  0  0  0  0  0  0  0  0
   -9.9402  -20.1231   32.6162 H   0  0  0  0  0  0  0  0  0  0  0  0
  -11.7055  -20.2417   32.6029 H   0  0  0  0  0  0  0  0  0  0  0  0
  1  2  1  0
  2  3  1  0
  3  4  1  0
  4  5  1  0
  5  6  1  0
  6  7  2  0
  6  8  2  0
  6  9  1  0
  9 10  1  0
 10 11  1  0
 11 12  1  0
 12 13  1  0
 13 14  1  0
 14  9  1  0
  1 15  1  0
  1 16  1  0
  2 17  1  0
  2 18  1  0
  3 19  1  0
  3 20  1  0
  4 21  1  0
  4 22  1  0
  5 23  1  0
 10 24  1  0
 10 25  1  0
 11 26  1  0
 11 27  1  0
 12 28  1  0
 13 29  1  0
 13 30  1  0
 14 31  1  0
 14 32  1  0
M  END
>  <Energy>  (504) 
-85.574643388585429

>  <compound_id>  (504) 
2570

>  <target_id>  (504) 
1

>  <reference_id>  (504) 
119

>  <inspiration_ids>  (504) 
[119, 35]

>  <energy_score>  (504) 
-21.158791269163647

>  <distance_score>  (504) 
3.1192297826408977

>  <path>  (504) 
/opt/xchem-fragalysis-2/maxwin/BulkDock/SCRATCH/505734/C2570-P119/C2570-P119.minimised.mol

>  <scratch_subdir>  (504) 
/opt/xchem-fragalysis-2/maxwin/BulkDock/SCRATCH/505734/C2570-P119

>  <fragmenstein_runtime>  (504) 
9.800978183746338

>  <fragmenstein_outcome>  (504) 
too moved

>  <fragmenstein_mode>  (504) 
expansion

>  <fragmenstein_error>  (504) 


$$$$
C2570-P35
     RDKit          3D

 32 32  0  0  0  0  0  0  0  0999 V2000
  -10.6550  -25.9657   32.2552 N   0  0  0  0  0  0  0  0  0  0  0  0
  -11.4088  -26.7721   31.3184 C   0  0  0  0  0  0  0  0  0  0  0  0
  -12.4523  -26.1067   30.3856 C   0  0  0  0  0  0  0  0  0  0  0  0
  -13.8108  -25.5810   30.9120 C   0  0  0  0  0  0  0  0  0  0  0  0
  -14.1470  -24.1437   30.7678 N   0  0  0  0  0  0  0  0  0  0  0  0
  -13.4955  -23.1022   31.9066 S   0  0  0  0  0  0  0  0  0  0  0  0
  -13.9217  -23.4773   33.2119 O   0  0  0  0  0  0  0  0  0  0  0  0
  -13.7178  -21.7463   31.5147 O   0  0  0  0  0  0  0  0  0  0  0  0
  -11.9321  -23.5104   31.5909 N   0  0  0  0  0  0  0  0  0  0  0  0
  -11.5244  -23.1638   30.2074 C   0  0  0  0  0  0  0  0  0  0  0  0
  -11.2929  -21.6757   30.1062 C   0  0  0  0  0  0  0  0  0  0  0  0
  -10.6192  -21.0950   31.2649 N   0  0  0  0  0  0  0  0  0  0  0  0
  -10.8905  -21.5607   32.6098 C   0  0  0  0  0  0  0  0  0  0  0  0
  -10.9565  -23.0654   32.6158 C   0  0  0  0  0  0  0  0  0  0  0  0
  -10.0622  -26.5399   32.8518 H   0  0  0  0  0  0  0  0  0  0  0  0
  -11.3464  -25.5276   32.8751 H   0  0  0  0  0  0  0  0  0  0  0  0
  -10.6760  -27.2720   30.6726 H   0  0  0  0  0  0  0  0  0  0  0  0
  -11.9080  -27.5793   31.8676 H   0  0  0  0  0  0  0  0  0  0  0  0
  -11.9722  -25.4432   29.6734 H   0  0  0  0  0  0  0  0  0  0  0  0
  -12.7401  -26.9451   29.7284 H   0  0  0  0  0  0  0  0  0  0  0  0
  -14.1387  -25.9863   31.8608 H   0  0  0  0  0  0  0  0  0  0  0  0
  -14.5500  -26.0432   30.2356 H   0  0  0  0  0  0  0  0  0  0  0  0
  -15.1533  -23.9482   30.7463 H   0  0  0  0  0  0  0  0  0  0  0  0
  -12.2820  -23.4155   29.4580 H   0  0  0  0  0  0  0  0  0  0  0  0
  -10.6681  -23.7854   29.9386 H   0  0  0  0  0  0  0  0  0  0  0  0
  -10.7126  -21.4781   29.2008 H   0  0  0  0  0  0  0  0  0  0  0  0
  -12.2377  -21.1815   29.9007 H   0  0  0  0  0  0  0  0  0  0  0  0
  -10.6595  -20.0908   31.2805 H   0  0  0  0  0  0  0  0  0  0  0  0
  -11.8067  -21.1083   33.0005 H   0  0  0  0  0  0  0  0  0  0  0  0
  -10.0842  -21.2287   33.2734 H   0  0  0  0  0  0  0  0  0  0  0  0
  -11.2347  -23.4253   33.6088 H   0  0  0  0  0  0  0  0  0  0  0  0
   -9.9724  -23.4921   32.3992 H   0  0  0  0  0  0  0  0  0  0  0  0
  1  2  1  0
  2  3  1  0
  3  4  1  0
  4  5  1  0
  5  6  1  0
  6  7  2  0
  6  8  2  0
  6  9  1  0
  9 10  1  0
 10 11  1  0
 11 12  1  0
 12 13  1  0
 13 14  1  0
 14  9  1  0
  1 15  1  0
  1 16  1  0
  2 17  1  0
  2 18  1  0
  3 19  1  0
  3 20  1  0
  4 21  1  0
  4 22  1  0
  5 23  1  0
 10 24  1  0
 10 25  1  0
 11 26  1  0
 11 27  1  0
 12 28  1  0
 13 29  1  0
 13 30  1  0
 14 31  1  0
 14 32  1  0
M  END
>  <Energy>  (505) 
-90.717228492526502

>  <compound_id>  (505) 
2570

>  <target_id>  (505) 
1

>  <reference_id>  (505) 
35

>  <inspiration_ids>  (505) 
[119, 35]

>  <energy_score>  (505) 
-26.301376373106677

>  <distance_score>  (505) 
2.8451841410417824

>  <path>  (505) 
/opt/xchem-fragalysis-2/maxwin/BulkDock/SCRATCH/505734/C2570-P35/C2570-P35.minimised.mol

>  <scratch_subdir>  (505) 
/opt/xchem-fragalysis-2/maxwin/BulkDock/SCRATCH/505734/C2570-P35

>  <fragmenstein_runtime>  (505) 
10.029192924499512

>  <fragmenstein_outcome>  (505) 
too moved

>  <fragmenstein_mode>  (505) 
expansion

>  <fragmenstein_error>  (505) 


$$$$
C3481-P119
     RDKit          3D

 41 43  0  0  0  0  0  0  0  0999 V2000
  -14.0346  -31.2349   28.1271 O   0  0  0  0  0  0  0  0  0  0  0  0
  -13.8083  -29.9178   28.6201 C   0  0  0  0  0  0  0  0  0  0  0  0
  -12.3230  -29.7067   28.8721 C   0  0  0  0  0  0  0  0  0  0  0  0
  -11.8656  -28.2359   29.0245 C   0  0  0  0  0  0  0  0  0  0  0  0
  -12.5690  -27.2483   28.2116 N   0  0  0  0  0  0  0  0  0  0  0  0
  -12.1346  -25.7919   28.1115 C   0  0  0  0  0  0  0  0  0  0  0  0
  -11.9570  -25.3704   26.6389 C   0  0  0  0  0  0  0  0  0  0  0  0
  -13.2469  -24.9669   25.9697 C   0  0  0  0  0  0  0  0  0  0  0  0
  -14.0919  -25.9113   25.3806 C   0  0  0  0  0  0  0  0  0  0  0  0
  -15.2599  -25.5166   24.7358 C   0  0  0  0  0  0  0  0  0  0  0  0
  -15.5700  -24.1663   24.6295 C   0  0  0  0  0  0  0  0  0  0  0  0
  -14.7123  -23.2153   25.1677 C   0  0  0  0  0  0  0  0  0  0  0  0
  -13.5681  -23.6120   25.8553 C   0  0  0  0  0  0  0  0  0  0  0  0
  -10.9928  -25.2252   28.9917 C   0  0  0  0  0  0  0  0  0  0  0  0
  -10.2710  -23.9997   28.7056 C   0  0  0  0  0  0  0  0  0  0  0  0
   -9.3946  -23.6213   29.6919 C   0  0  0  0  0  0  0  0  0  0  0  0
   -9.5430  -24.5711   31.0764 S   0  0  0  0  0  0  0  0  0  0  0  0
  -10.5992  -25.6243   30.2511 C   0  0  0  0  0  0  0  0  0  0  0  0
  -14.0252  -27.5095   28.1657 C   0  0  0  0  0  0  0  0  0  0  0  0
  -14.3777  -28.8968   27.6567 C   0  0  0  0  0  0  0  0  0  0  0  0
  -13.6391  -31.2862   27.2379 H   0  0  0  0  0  0  0  0  0  0  0  0
  -14.3414  -29.8446   29.5760 H   0  0  0  0  0  0  0  0  0  0  0  0
  -12.0898  -30.2356   29.8019 H   0  0  0  0  0  0  0  0  0  0  0  0
  -11.7312  -30.2284   28.1129 H   0  0  0  0  0  0  0  0  0  0  0  0
  -11.9732  -28.0302   30.0854 H   0  0  0  0  0  0  0  0  0  0  0  0
  -10.7992  -28.2079   28.7919 H   0  0  0  0  0  0  0  0  0  0  0  0
  -12.9751  -25.1610   28.4199 H   0  0  0  0  0  0  0  0  0  0  0  0
  -11.2860  -24.5198   26.5088 H   0  0  0  0  0  0  0  0  0  0  0  0
  -11.4339  -26.1198   26.0603 H   0  0  0  0  0  0  0  0  0  0  0  0
  -13.8410  -26.9689   25.4033 H   0  0  0  0  0  0  0  0  0  0  0  0
  -15.9143  -26.2619   24.2918 H   0  0  0  0  0  0  0  0  0  0  0  0
  -16.4681  -23.8503   24.1055 H   0  0  0  0  0  0  0  0  0  0  0  0
  -14.9314  -22.1575   25.0397 H   0  0  0  0  0  0  0  0  0  0  0  0
  -12.9039  -22.8492   26.2547 H   0  0  0  0  0  0  0  0  0  0  0  0
  -10.3752  -23.3892   27.8191 H   0  0  0  0  0  0  0  0  0  0  0  0
   -8.7127  -22.7974   29.6720 H   0  0  0  0  0  0  0  0  0  0  0  0
  -10.9244  -26.4721   30.8101 H   0  0  0  0  0  0  0  0  0  0  0  0
  -14.5704  -26.7605   27.5970 H   0  0  0  0  0  0  0  0  0  0  0  0
  -14.4753  -27.4752   29.1621 H   0  0  0  0  0  0  0  0  0  0  0  0
  -15.4682  -29.0124   27.6126 H   0  0  0  0  0  0  0  0  0  0  0  0
  -14.0339  -29.0662   26.6339 H   0  0  0  0  0  0  0  0  0  0  0  0
  1  2  1  0
  2  3  1  0
  3  4  1  0
  4  5  1  0
  5  6  1  0
  6  7  1  0
  7  8  1  0
  8  9  2  0
  9 10  1  0
 10 11  2  0
 11 12  1  0
 12 13  2  0
  6 14  1  0
 14 15  1  0
 15 16  2  0
 16 17  1  0
 17 18  1  0
  5 19  1  0
 19 20  1  0
 20  2  1  0
 13  8  1  0
 18 14  2  0
  1 21  1  0
  2 22  1  0
  3 23  1  0
  3 24  1  0
  4 25  1  0
  4 26  1  0
  6 27  1  0
  7 28  1  0
  7 29  1  0
  9 30  1  0
 10 31  1  0
 11 32  1  0
 12 33  1  0
 13 34  1  0
 15 35  1  0
 16 36  1  0
 18 37  1  0
 19 38  1  0
 19 39  1  0
 20 40  1  0
 20 41  1  0
M  END
>  <Energy>  (506) 
80.360973630215554

>  <compound_id>  (506) 
3481

>  <target_id>  (506) 
1

>  <reference_id>  (506) 
119

>  <inspiration_ids>  (506) 
[119, 39]

>  <energy_score>  (506) 
-25.279578255018976

>  <distance_score>  (506) 
5.5966731202095605

>  <path>  (506) 
/opt/xchem-fragalysis-2/maxwin/BulkDock/SCRATCH/505734/C3481-P119/C3481-P119.minimised.mol

>  <scratch_subdir>  (506) 
/opt/xchem-fragalysis-2/maxwin/BulkDock/SCRATCH/505734/C3481-P119

>  <fragmenstein_runtime>  (506) 
6.616297483444214

>  <fragmenstein_outcome>  (506) 
too moved

>  <fragmenstein_mode>  (506) 
expansion

>  <fragmenstein_error>  (506) 


$$$$
C3481-P39
     RDKit          3D

 41 43  0  0  0  0  0  0  0  0999 V2000
  -15.7043  -31.9114   27.8028 O   0  0  0  0  0  0  0  0  0  0  0  0
  -14.8768  -30.7840   27.5136 C   0  0  0  0  0  0  0  0  0  0  0  0
  -15.7139  -29.5249   27.6688 C   0  0  0  0  0  0  0  0  0  0  0  0
  -14.8383  -28.2687   27.6927 C   0  0  0  0  0  0  0  0  0  0  0  0
  -13.7513  -28.2997   28.6869 N   0  0  0  0  0  0  0  0  0  0  0  0
  -12.5083  -27.4531   28.6173 C   0  0  0  0  0  0  0  0  0  0  0  0
  -11.8041  -27.0101   29.9741 C   0  0  0  0  0  0  0  0  0  0  0  0
  -11.6999  -25.5979   30.5226 C   0  0  0  0  0  0  0  0  0  0  0  0
  -12.5005  -24.5175   30.1543 C   0  0  0  0  0  0  0  0  0  0  0  0
  -12.4022  -23.2827   30.7977 C   0  0  0  0  0  0  0  0  0  0  0  0
  -11.4861  -23.0999   31.8204 C   0  0  0  0  0  0  0  0  0  0  0  0
  -10.6478  -24.1480   32.1771 C   0  0  0  0  0  0  0  0  0  0  0  0
  -10.7490  -25.3788   31.5331 C   0  0  0  0  0  0  0  0  0  0  0  0
  -12.4316  -26.3477   27.5833 C   0  0  0  0  0  0  0  0  0  0  0  0
  -13.4750  -25.5869   26.9640 C   0  0  0  0  0  0  0  0  0  0  0  0
  -13.0036  -24.6247   26.1022 C   0  0  0  0  0  0  0  0  0  0  0  0
  -11.3177  -24.5653   26.0795 S   0  0  0  0  0  0  0  0  0  0  0  0
  -11.2006  -25.8773   27.1456 C   0  0  0  0  0  0  0  0  0  0  0  0
  -13.6502  -29.5878   29.3846 C   0  0  0  0  0  0  0  0  0  0  0  0
  -13.6646  -30.7871   28.4428 C   0  0  0  0  0  0  0  0  0  0  0  0
  -15.2530  -32.6975   27.4483 H   0  0  0  0  0  0  0  0  0  0  0  0
  -14.5509  -30.8866   26.4728 H   0  0  0  0  0  0  0  0  0  0  0  0
  -16.3215  -29.5803   28.5825 H   0  0  0  0  0  0  0  0  0  0  0  0
  -16.4398  -29.4616   26.8484 H   0  0  0  0  0  0  0  0  0  0  0  0
  -14.4937  -28.0830   26.6802 H   0  0  0  0  0  0  0  0  0  0  0  0
  -15.5298  -27.4498   27.9043 H   0  0  0  0  0  0  0  0  0  0  0  0
  -11.8089  -28.1837   28.2024 H   0  0  0  0  0  0  0  0  0  0  0  0
  -12.1533  -27.6531   30.7878 H   0  0  0  0  0  0  0  0  0  0  0  0
  -10.7507  -27.2808   29.8322 H   0  0  0  0  0  0  0  0  0  0  0  0
  -13.2703  -24.6129   29.4026 H   0  0  0  0  0  0  0  0  0  0  0  0
  -13.0777  -22.4798   30.5263 H   0  0  0  0  0  0  0  0  0  0  0  0
  -11.4276  -22.1471   32.3360 H   0  0  0  0  0  0  0  0  0  0  0  0
   -9.9036  -24.0163   32.9535 H   0  0  0  0  0  0  0  0  0  0  0  0
  -10.0899  -26.1869   31.8492 H   0  0  0  0  0  0  0  0  0  0  0  0
  -14.5355  -25.7083   27.1229 H   0  0  0  0  0  0  0  0  0  0  0  0
  -13.5728  -23.9334   25.4941 H   0  0  0  0  0  0  0  0  0  0  0  0
  -10.2235  -26.2207   27.4585 H   0  0  0  0  0  0  0  0  0  0  0  0
  -14.5055  -29.6824   30.0675 H   0  0  0  0  0  0  0  0  0  0  0  0
  -12.7869  -29.6423   30.0474 H   0  0  0  0  0  0  0  0  0  0  0  0
  -12.7493  -30.7784   27.8415 H   0  0  0  0  0  0  0  0  0  0  0  0
  -13.6444  -31.7028   29.0417 H   0  0  0  0  0  0  0  0  0  0  0  0
  1  2  1  0
  2  3  1  0
  3  4  1  0
  4  5  1  0
  5  6  1  0
  6  7  1  0
  7  8  1  0
  8  9  2  0
  9 10  1  0
 10 11  2  0
 11 12  1  0
 12 13  2  0
  6 14  1  0
 14 15  1  0
 15 16  2  0
 16 17  1  0
 17 18  1  0
  5 19  1  0
 19 20  1  0
 20  2  1  0
 13  8  1  0
 18 14  2  0
  1 21  1  0
  2 22  1  0
  3 23  1  0
  3 24  1  0
  4 25  1  0
  4 26  1  0
  6 27  1  0
  7 28  1  0
  7 29  1  0
  9 30  1  0
 10 31  1  0
 11 32  1  0
 12 33  1  0
 13 34  1  0
 15 35  1  0
 16 36  1  0
 18 37  1  0
 19 38  1  0
 19 39  1  0
 20 40  1  0
 20 41  1  0
M  END
>  <Energy>  (507) 
82.900767289722609

>  <compound_id>  (507) 
3481

>  <target_id>  (507) 
1

>  <reference_id>  (507) 
39

>  <inspiration_ids>  (507) 
[119, 39]

>  <energy_score>  (507) 
-22.739784595512674

>  <distance_score>  (507) 
4.9242963918973395

>  <path>  (507) 
/opt/xchem-fragalysis-2/maxwin/BulkDock/SCRATCH/505734/C3481-P39/C3481-P39.minimised.mol

>  <scratch_subdir>  (507) 
/opt/xchem-fragalysis-2/maxwin/BulkDock/SCRATCH/505734/C3481-P39

>  <fragmenstein_runtime>  (507) 
9.664592742919922

>  <fragmenstein_outcome>  (507) 
too moved

>  <fragmenstein_mode>  (507) 
expansion

>  <fragmenstein_error>  (507) 


$$$$
C3484-P119
     RDKit          3D

 39 40  0  0  0  0  0  0  0  0999 V2000
  -16.0051  -25.7726   29.3435 C   0  0  0  0  0  0  0  0  0  0  0  0
  -15.3633  -25.2093   28.0843 C   0  0  0  0  0  0  0  0  0  0  0  0
  -13.6076  -25.2193   27.7251 S   0  0  0  0  0  0  0  0  0  0  0  0
  -13.4805  -24.5594   26.4584 O   0  0  0  0  0  0  0  0  0  0  0  0
  -13.1487  -26.5802   27.9133 O   0  0  0  0  0  0  0  0  0  0  0  0
  -12.7928  -24.3226   28.8523 N   0  0  0  0  0  0  0  0  0  0  0  0
  -12.0726  -23.1518   28.6538 C   0  0  0  0  0  0  0  0  0  0  0  0
  -11.6083  -22.7757   27.4285 C   0  0  0  0  0  0  0  0  0  0  0  0
  -11.0645  -21.2236   27.4953 S   0  0  0  0  0  0  0  0  0  0  0  0
  -11.1662  -21.0663   29.1180 C   0  0  0  0  0  0  0  0  0  0  0  0
  -11.6698  -22.2022   29.6837 C   0  0  0  0  0  0  0  0  0  0  0  0
  -11.6480  -22.2917   31.1526 C   0  0  0  0  0  0  0  0  0  0  0  0
  -12.2868  -21.1216   31.7950 N   0  0  0  0  0  0  0  0  0  0  0  0
  -13.1996  -21.4694   32.9095 C   0  0  0  0  0  0  0  0  0  0  0  0
  -12.5126  -21.9646   34.1999 C   0  0  0  0  0  0  0  0  0  0  0  0
  -11.0298  -22.2303   33.9519 C   0  0  0  0  0  0  0  0  0  0  0  0
  -10.2580  -22.6674   35.0560 O   0  0  0  0  0  0  0  0  0  0  0  0
  -10.4790  -20.9214   33.4431 C   0  0  0  0  0  0  0  0  0  0  0  0
  -11.2585  -20.2448   32.3387 C   0  0  0  0  0  0  0  0  0  0  0  0
  -15.6369  -26.7753   29.5768 H   0  0  0  0  0  0  0  0  0  0  0  0
  -15.9384  -25.1281   30.2142 H   0  0  0  0  0  0  0  0  0  0  0  0
  -17.0815  -25.8813   29.1593 H   0  0  0  0  0  0  0  0  0  0  0  0
  -15.6839  -24.2029   27.8646 H   0  0  0  0  0  0  0  0  0  0  0  0
  -15.7710  -25.8065   27.2549 H   0  0  0  0  0  0  0  0  0  0  0  0
  -12.4272  -24.8408   29.6537 H   0  0  0  0  0  0  0  0  0  0  0  0
  -11.6433  -23.2813   26.4767 H   0  0  0  0  0  0  0  0  0  0  0  0
  -10.8450  -20.1525   29.5867 H   0  0  0  0  0  0  0  0  0  0  0  0
  -10.5682  -22.3258   31.3692 H   0  0  0  0  0  0  0  0  0  0  0  0
  -11.9738  -23.2442   31.5049 H   0  0  0  0  0  0  0  0  0  0  0  0
  -13.9838  -22.1549   32.5955 H   0  0  0  0  0  0  0  0  0  0  0  0
  -13.7649  -20.5608   33.1632 H   0  0  0  0  0  0  0  0  0  0  0  0
  -12.6224  -21.1696   34.9384 H   0  0  0  0  0  0  0  0  0  0  0  0
  -13.0200  -22.8149   34.6606 H   0  0  0  0  0  0  0  0  0  0  0  0
  -10.8937  -23.0407   33.2449 H   0  0  0  0  0  0  0  0  0  0  0  0
  -10.8569  -22.5823   35.8256 H   0  0  0  0  0  0  0  0  0  0  0  0
  -10.6204  -20.2458   34.2783 H   0  0  0  0  0  0  0  0  0  0  0  0
   -9.4213  -21.0248   33.1845 H   0  0  0  0  0  0  0  0  0  0  0  0
  -10.5662  -19.8702   31.5824 H   0  0  0  0  0  0  0  0  0  0  0  0
  -11.7330  -19.3336   32.7272 H   0  0  0  0  0  0  0  0  0  0  0  0
  1  2  1  0
  2  3  1  0
  3  4  2  0
  3  5  2  0
  3  6  1  0
  6  7  1  0
  7  8  2  0
  8  9  1  0
  9 10  1  0
 10 11  2  0
 11 12  1  0
 12 13  1  0
 13 14  1  0
 14 15  1  0
 15 16  1  0
 16 17  1  0
 16 18  1  0
 18 19  1  0
 11  7  1  0
 19 13  1  0
  1 20  1  0
  1 21  1  0
  1 22  1  0
  2 23  1  0
  2 24  1  0
  6 25  1  0
  8 26  1  0
 10 27  1  0
 12 28  1  0
 12 29  1  0
 14 30  1  0
 14 31  1  0
 15 32  1  0
 15 33  1  0
 16 34  1  0
 17 35  1  0
 18 36  1  0
 18 37  1  0
 19 38  1  0
 19 39  1  0
M  END
>  <Energy>  (508) 
9.043756093890746

>  <compound_id>  (508) 
3484

>  <target_id>  (508) 
1

>  <reference_id>  (508) 
119

>  <inspiration_ids>  (508) 
[119, 46]

>  <energy_score>  (508) 
2.1678392074984174

>  <distance_score>  (508) 
2.48505640083018

>  <path>  (508) 
/opt/xchem-fragalysis-2/maxwin/BulkDock/SCRATCH/505734/C3484-P119/C3484-P119.minimised.mol

>  <scratch_subdir>  (508) 
/opt/xchem-fragalysis-2/maxwin/BulkDock/SCRATCH/505734/C3484-P119

>  <fragmenstein_runtime>  (508) 
3.8840088844299316

>  <fragmenstein_outcome>  (508) 
too moved

>  <fragmenstein_mode>  (508) 
expansion

>  <fragmenstein_error>  (508) 


$$$$
C3484-P46
     RDKit          3D

 39 40  0  0  0  0  0  0  0  0999 V2000
  -15.0628  -26.7953   28.1443 C   0  0  0  0  0  0  0  0  0  0  0  0
  -13.6598  -26.3213   27.7629 C   0  0  0  0  0  0  0  0  0  0  0  0
  -13.3720  -24.5299   27.6957 S   0  0  0  0  0  0  0  0  0  0  0  0
  -13.8570  -23.8399   28.8738 O   0  0  0  0  0  0  0  0  0  0  0  0
  -13.6461  -24.1776   26.3216 O   0  0  0  0  0  0  0  0  0  0  0  0
  -11.7359  -24.2584   27.7850 N   0  0  0  0  0  0  0  0  0  0  0  0
  -11.1001  -24.9289   28.7997 C   0  0  0  0  0  0  0  0  0  0  0  0
  -10.5192  -26.1422   28.5663 C   0  0  0  0  0  0  0  0  0  0  0  0
  -10.2893  -26.9525   30.0149 S   0  0  0  0  0  0  0  0  0  0  0  0
  -10.5149  -25.5575   30.9097 C   0  0  0  0  0  0  0  0  0  0  0  0
  -11.1098  -24.5521   30.1718 C   0  0  0  0  0  0  0  0  0  0  0  0
  -11.5928  -23.2609   30.7330 C   0  0  0  0  0  0  0  0  0  0  0  0
  -11.0726  -23.1817   32.0721 N   0  0  0  0  0  0  0  0  0  0  0  0
  -11.8065  -23.8358   33.1506 C   0  0  0  0  0  0  0  0  0  0  0  0
  -12.6377  -22.9668   34.0750 C   0  0  0  0  0  0  0  0  0  0  0  0
  -12.9495  -21.6198   33.4879 C   0  0  0  0  0  0  0  0  0  0  0  0
  -13.4426  -20.6702   34.4303 O   0  0  0  0  0  0  0  0  0  0  0  0
  -11.7748  -21.0049   32.7783 C   0  0  0  0  0  0  0  0  0  0  0  0
  -10.6376  -21.8748   32.3670 C   0  0  0  0  0  0  0  0  0  0  0  0
  -15.7345  -26.6812   27.2860 H   0  0  0  0  0  0  0  0  0  0  0  0
  -15.0312  -27.8712   28.3530 H   0  0  0  0  0  0  0  0  0  0  0  0
  -15.5240  -26.3101   29.0019 H   0  0  0  0  0  0  0  0  0  0  0  0
  -13.4488  -26.6722   26.7460 H   0  0  0  0  0  0  0  0  0  0  0  0
  -12.9238  -26.8229   28.3833 H   0  0  0  0  0  0  0  0  0  0  0  0
  -11.3552  -24.3123   26.8394 H   0  0  0  0  0  0  0  0  0  0  0  0
  -10.3991  -26.6635   27.6295 H   0  0  0  0  0  0  0  0  0  0  0  0
  -10.2926  -25.5925   31.9664 H   0  0  0  0  0  0  0  0  0  0  0  0
  -12.6394  -23.0333   30.7134 H   0  0  0  0  0  0  0  0  0  0  0  0
  -11.1906  -22.4795   30.0727 H   0  0  0  0  0  0  0  0  0  0  0  0
  -11.0648  -24.3479   33.7768 H   0  0  0  0  0  0  0  0  0  0  0  0
  -12.3862  -24.6733   32.7857 H   0  0  0  0  0  0  0  0  0  0  0  0
  -13.5750  -23.4783   34.3218 H   0  0  0  0  0  0  0  0  0  0  0  0
  -12.1170  -22.8514   35.0203 H   0  0  0  0  0  0  0  0  0  0  0  0
  -13.7671  -21.7542   32.7682 H   0  0  0  0  0  0  0  0  0  0  0  0
  -12.6961  -20.4400   35.0140 H   0  0  0  0  0  0  0  0  0  0  0  0
  -12.1841  -20.7910   31.8039 H   0  0  0  0  0  0  0  0  0  0  0  0
  -11.4526  -20.0568   33.2137 H   0  0  0  0  0  0  0  0  0  0  0  0
   -9.7996  -22.0872   33.0098 H   0  0  0  0  0  0  0  0  0  0  0  0
  -10.1975  -21.3514   31.5210 H   0  0  0  0  0  0  0  0  0  0  0  0
  1  2  1  0
  2  3  1  0
  3  4  2  0
  3  5  2  0
  3  6  1  0
  6  7  1  0
  7  8  2  0
  8  9  1  0
  9 10  1  0
 10 11  2  0
 11 12  1  0
 12 13  1  0
 13 14  1  0
 14 15  1  0
 15 16  1  0
 16 17  1  0
 16 18  1  0
 18 19  1  0
 11  7  1  0
 19 13  1  0
  1 20  1  0
  1 21  1  0
  1 22  1  0
  2 23  1  0
  2 24  1  0
  6 25  1  0
  8 26  1  0
 10 27  1  0
 12 28  1  0
 12 29  1  0
 14 30  1  0
 14 31  1  0
 15 32  1  0
 15 33  1  0
 16 34  1  0
 17 35  1  0
 18 36  1  0
 18 37  1  0
 19 38  1  0
 19 39  1  0
M  END
>  <Energy>  (509) 
4.8796824854439196

>  <compound_id>  (509) 
3484

>  <target_id>  (509) 
1

>  <reference_id>  (509) 
46

>  <inspiration_ids>  (509) 
[119, 46]

>  <energy_score>  (509) 
-1.9962344009481185

>  <distance_score>  (509) 
2.800389841075418

>  <path>  (509) 
/opt/xchem-fragalysis-2/maxwin/BulkDock/SCRATCH/505734/C3484-P46/C3484-P46.minimised.mol

>  <scratch_subdir>  (509) 
/opt/xchem-fragalysis-2/maxwin/BulkDock/SCRATCH/505734/C3484-P46

>  <fragmenstein_runtime>  (509) 
7.72039008140564

>  <fragmenstein_outcome>  (509) 
too moved

>  <fragmenstein_mode>  (509) 
expansion

>  <fragmenstein_error>  (509) 


$$$$
C3488-P119
     RDKit          3D

 46 48  0  0  0  0  0  0  0  0999 V2000
  -11.5809  -21.4470   29.6667 C   0  0  0  0  0  0  0  0  0  0  0  0
  -11.0858  -22.8825   29.9320 C   0  0  0  0  0  0  0  0  0  0  0  0
  -10.3132  -22.9035   31.2446 C   0  0  0  0  0  0  0  0  0  0  0  0
   -8.9744  -23.2213   31.3698 C   0  0  0  0  0  0  0  0  0  0  0  0
   -8.3437  -22.9326   32.9123 S   0  0  0  0  0  0  0  0  0  0  0  0
   -9.8691  -22.5754   33.5268 C   0  0  0  0  0  0  0  0  0  0  0  0
  -10.8209  -22.5387   32.5398 C   0  0  0  0  0  0  0  0  0  0  0  0
  -12.1043  -22.1958   32.7772 N   0  0  0  0  0  0  0  0  0  0  0  0
  -12.5587  -21.8140   34.0131 N   0  0  0  0  0  0  0  0  0  0  0  0
  -13.9379  -21.5445   34.1153 C   0  0  0  0  0  0  0  0  0  0  0  0
  -14.7647  -22.3311   34.9107 C   0  0  0  0  0  0  0  0  0  0  0  0
  -16.1465  -22.1767   34.8251 C   0  0  0  0  0  0  0  0  0  0  0  0
  -16.6987  -21.2382   33.9492 C   0  0  0  0  0  0  0  0  0  0  0  0
  -15.8758  -20.4333   33.1670 C   0  0  0  0  0  0  0  0  0  0  0  0
  -14.5086  -20.5968   33.2561 C   0  0  0  0  0  0  0  0  0  0  0  0
  -13.6880  -19.8227   32.4819 O   0  0  0  0  0  0  0  0  0  0  0  0
  -10.2530  -23.4195   28.8233 N   0  0  0  0  0  0  0  0  0  0  0  0
  -10.6016  -22.9621   27.4797 C   0  0  0  0  0  0  0  0  0  0  0  0
  -11.7854  -23.6750   26.8539 C   0  0  0  0  0  0  0  0  0  0  0  0
  -11.4843  -25.1590   26.7802 C   0  0  0  0  0  0  0  0  0  0  0  0
  -12.5991  -25.8545   26.2398 O   0  0  0  0  0  0  0  0  0  0  0  0
  -11.1670  -25.6893   28.1630 C   0  0  0  0  0  0  0  0  0  0  0  0
  -10.0811  -24.8789   28.8622 C   0  0  0  0  0  0  0  0  0  0  0  0
  -10.7593  -20.7532   29.4656 H   0  0  0  0  0  0  0  0  0  0  0  0
  -12.2560  -21.4277   28.8118 H   0  0  0  0  0  0  0  0  0  0  0  0
  -12.1450  -21.0328   30.5038 H   0  0  0  0  0  0  0  0  0  0  0  0
  -11.9576  -23.5199   30.0143 H   0  0  0  0  0  0  0  0  0  0  0  0
   -8.3118  -23.5100   30.5729 H   0  0  0  0  0  0  0  0  0  0  0  0
  -10.0081  -22.3969   34.5795 H   0  0  0  0  0  0  0  0  0  0  0  0
  -12.8287  -22.4520   32.0789 H   0  0  0  0  0  0  0  0  0  0  0  0
  -12.2092  -22.3298   34.8316 H   0  0  0  0  0  0  0  0  0  0  0  0
  -14.3450  -23.0866   35.5681 H   0  0  0  0  0  0  0  0  0  0  0  0
  -16.7990  -22.8015   35.4289 H   0  0  0  0  0  0  0  0  0  0  0  0
  -17.7779  -21.1367   33.8741 H   0  0  0  0  0  0  0  0  0  0  0  0
  -16.2997  -19.7158   32.4741 H   0  0  0  0  0  0  0  0  0  0  0  0
  -12.7970  -20.2043   32.6649 H   0  0  0  0  0  0  0  0  0  0  0  0
  -10.7482  -21.8822   27.4308 H   0  0  0  0  0  0  0  0  0  0  0  0
   -9.7324  -23.1417   26.8450 H   0  0  0  0  0  0  0  0  0  0  0  0
  -11.9810  -23.2776   25.8518 H   0  0  0  0  0  0  0  0  0  0  0  0
  -12.6997  -23.5019   27.4303 H   0  0  0  0  0  0  0  0  0  0  0  0
  -10.6364  -25.3412   26.1126 H   0  0  0  0  0  0  0  0  0  0  0  0
  -13.3867  -25.6323   26.7627 H   0  0  0  0  0  0  0  0  0  0  0  0
  -12.0765  -25.6633   28.7525 H   0  0  0  0  0  0  0  0  0  0  0  0
  -10.8829  -26.7456   28.1027 H   0  0  0  0  0  0  0  0  0  0  0  0
   -9.9824  -25.2487   29.8879 H   0  0  0  0  0  0  0  0  0  0  0  0
   -9.1243  -25.1029   28.3785 H   0  0  0  0  0  0  0  0  0  0  0  0
  1  2  1  0
  2  3  1  0
  3  4  2  0
  4  5  1  0
  5  6  1  0
  6  7  2  0
  7  8  1  0
  8  9  1  0
  9 10  1  0
 10 11  2  0
 11 12  1  0
 12 13  2  0
 13 14  1  0
 14 15  2  0
 15 16  1  0
  2 17  1  0
 17 18  1  0
 18 19  1  0
 19 20  1  0
 20 21  1  0
 20 22  1  0
 22 23  1  0
  7  3  1  0
 15 10  1  0
 23 17  1  0
  1 24  1  0
  1 25  1  0
  1 26  1  0
  2 27  1  0
  4 28  1  0
  6 29  1  0
  8 30  1  0
  9 31  1  0
 11 32  1  0
 12 33  1  0
 13 34  1  0
 14 35  1  0
 16 36  1  0
 18 37  1  0
 18 38  1  0
 19 39  1  0
 19 40  1  0
 20 41  1  0
 21 42  1  0
 22 43  1  0
 22 44  1  0
 23 45  1  0
 23 46  1  0
M  END
>  <Energy>  (510) 
49.19635755452834

>  <compound_id>  (510) 
3488

>  <target_id>  (510) 
1

>  <reference_id>  (510) 
119

>  <inspiration_ids>  (510) 
[119, 62]

>  <energy_score>  (510) 
-83.0458671846502

>  <distance_score>  (510) 
4.536175672238519

>  <path>  (510) 
/opt/xchem-fragalysis-2/maxwin/BulkDock/SCRATCH/505734/C3488-P119/C3488-P119.minimised.mol

>  <scratch_subdir>  (510) 
/opt/xchem-fragalysis-2/maxwin/BulkDock/SCRATCH/505734/C3488-P119

>  <fragmenstein_runtime>  (510) 
9.207178831100464

>  <fragmenstein_outcome>  (510) 
too moved

>  <fragmenstein_mode>  (510) 
expansion

>  <fragmenstein_error>  (510) 


$$$$
C3488-P62
     RDKit          3D

 46 48  0  0  0  0  0  0  0  0999 V2000
  -14.0035  -24.2680   31.6953 C   0  0  0  0  0  0  0  0  0  0  0  0
  -12.9083  -25.1720   31.0242 C   0  0  0  0  0  0  0  0  0  0  0  0
  -12.0059  -25.7642   32.0369 C   0  0  0  0  0  0  0  0  0  0  0  0
  -12.2566  -25.7524   33.3861 C   0  0  0  0  0  0  0  0  0  0  0  0
  -10.9195  -26.4037   34.1635 S   0  0  0  0  0  0  0  0  0  0  0  0
  -10.4334  -27.2307   32.7338 C   0  0  0  0  0  0  0  0  0  0  0  0
  -10.6566  -26.2085   31.8905 C   0  0  0  0  0  0  0  0  0  0  0  0
   -9.6074  -25.5789   31.3345 N   0  0  0  0  0  0  0  0  0  0  0  0
   -9.6481  -24.2811   31.6401 N   0  0  0  0  0  0  0  0  0  0  0  0
  -10.7172  -23.5098   31.0866 C   0  0  0  0  0  0  0  0  0  0  0  0
  -11.3358  -22.6428   31.9388 C   0  0  0  0  0  0  0  0  0  0  0  0
  -11.9957  -21.6114   31.3730 C   0  0  0  0  0  0  0  0  0  0  0  0
  -12.0527  -21.4515   29.9749 C   0  0  0  0  0  0  0  0  0  0  0  0
  -11.5956  -22.3656   29.0714 C   0  0  0  0  0  0  0  0  0  0  0  0
  -10.9382  -23.4196   29.6154 C   0  0  0  0  0  0  0  0  0  0  0  0
  -10.0569  -24.0249   28.7366 O   0  0  0  0  0  0  0  0  0  0  0  0
  -12.8262  -25.8904   29.7298 N   0  0  0  0  0  0  0  0  0  0  0  0
  -13.1873  -25.1919   28.5183 C   0  0  0  0  0  0  0  0  0  0  0  0
  -12.2212  -25.2348   27.3583 C   0  0  0  0  0  0  0  0  0  0  0  0
  -11.1094  -26.2713   27.4797 C   0  0  0  0  0  0  0  0  0  0  0  0
  -11.5032  -27.4881   26.8871 O   0  0  0  0  0  0  0  0  0  0  0  0
  -10.7758  -26.7071   28.8599 C   0  0  0  0  0  0  0  0  0  0  0  0
  -12.0334  -27.0875   29.5482 C   0  0  0  0  0  0  0  0  0  0  0  0
  -14.7926  -24.7731   32.2493 H   0  0  0  0  0  0  0  0  0  0  0  0
  -14.4192  -23.6061   30.9422 H   0  0  0  0  0  0  0  0  0  0  0  0
  -13.5849  -23.5980   32.4527 H   0  0  0  0  0  0  0  0  0  0  0  0
  -12.4885  -24.3113   30.6298 H   0  0  0  0  0  0  0  0  0  0  0  0
  -13.1166  -25.3554   33.8993 H   0  0  0  0  0  0  0  0  0  0  0  0
   -9.6745  -27.9856   32.6256 H   0  0  0  0  0  0  0  0  0  0  0  0
   -8.6939  -25.9985   31.5247 H   0  0  0  0  0  0  0  0  0  0  0  0
   -9.6339  -24.1220   32.6502 H   0  0  0  0  0  0  0  0  0  0  0  0
  -11.3330  -22.7733   33.0039 H   0  0  0  0  0  0  0  0  0  0  0  0
  -12.4212  -20.9459   32.1043 H   0  0  0  0  0  0  0  0  0  0  0  0
  -12.4496  -20.5665   29.5173 H   0  0  0  0  0  0  0  0  0  0  0  0
  -11.6088  -22.1806   28.0055 H   0  0  0  0  0  0  0  0  0  0  0  0
   -9.4364  -24.4708   29.3478 H   0  0  0  0  0  0  0  0  0  0  0  0
  -13.4053  -24.1589   28.7447 H   0  0  0  0  0  0  0  0  0  0  0  0
  -14.1201  -25.5911   28.1146 H   0  0  0  0  0  0  0  0  0  0  0  0
  -11.7818  -24.2539   27.1762 H   0  0  0  0  0  0  0  0  0  0  0  0
  -12.8584  -25.3760   26.4866 H   0  0  0  0  0  0  0  0  0  0  0  0
  -10.2192  -25.9236   26.9626 H   0  0  0  0  0  0  0  0  0  0  0  0
  -11.4010  -27.3144   25.9350 H   0  0  0  0  0  0  0  0  0  0  0  0
  -10.0547  -27.4953   28.9038 H   0  0  0  0  0  0  0  0  0  0  0  0
  -10.2651  -25.9570   29.3815 H   0  0  0  0  0  0  0  0  0  0  0  0
  -12.5321  -27.8068   28.8949 H   0  0  0  0  0  0  0  0  0  0  0  0
  -11.8794  -27.6891   30.4432 H   0  0  0  0  0  0  0  0  0  0  0  0
  1  2  1  0
  2  3  1  0
  3  4  2  0
  4  5  1  0
  5  6  1  0
  6  7  2  0
  7  8  1  0
  8  9  1  0
  9 10  1  0
 10 11  2  0
 11 12  1  0
 12 13  2  0
 13 14  1  0
 14 15  2  0
 15 16  1  0
  2 17  1  0
 17 18  1  0
 18 19  1  0
 19 20  1  0
 20 21  1  0
 20 22  1  0
 22 23  1  0
  7  3  1  0
 15 10  1  0
 23 17  1  0
  1 24  1  0
  1 25  1  0
  1 26  1  0
  2 27  1  0
  4 28  1  0
  6 29  1  0
  8 30  1  0
  9 31  1  0
 11 32  1  0
 12 33  1  0
 13 34  1  0
 14 35  1  0
 16 36  1  0
 18 37  1  0
 18 38  1  0
 19 39  1  0
 19 40  1  0
 20 41  1  0
 21 42  1  0
 22 43  1  0
 22 44  1  0
 23 45  1  0
 23 46  1  0
M  END
>  <Energy>  (511) 
229.631229254365

>  <compound_id>  (511) 
3488

>  <target_id>  (511) 
1

>  <reference_id>  (511) 
62

>  <inspiration_ids>  (511) 
[119, 62]

>  <energy_score>  (511) 
97.3890045151885

>  <distance_score>  (511) 
2.0491576167612964

>  <path>  (511) 
/opt/xchem-fragalysis-2/maxwin/BulkDock/SCRATCH/505734/C3488-P62/C3488-P62.minimised.mol

>  <scratch_subdir>  (511) 
/opt/xchem-fragalysis-2/maxwin/BulkDock/SCRATCH/505734/C3488-P62

>  <fragmenstein_runtime>  (511) 
7.290093660354614

>  <fragmenstein_outcome>  (511) 
too moved

>  <fragmenstein_mode>  (511) 
expansion

>  <fragmenstein_error>  (511) 


$$$$
C3489-P119
     RDKit          3D

 51 53  0  0  0  0  0  0  0  0999 V2000
  -12.1627  -22.5972   25.1776 C   0  0  0  0  0  0  0  0  0  0  0  0
  -12.3828  -23.7332   26.1473 C   0  0  0  0  0  0  0  0  0  0  0  0
  -13.4638  -23.9593   26.6166 O   0  0  0  0  0  0  0  0  0  0  0  0
  -11.1136  -24.3295   26.4114 N   0  0  0  0  0  0  0  0  0  0  0  0
  -10.7472  -25.4926   27.2658 C   0  0  0  0  0  0  0  0  0  0  0  0
  -11.2404  -25.6026   28.7173 C   0  0  0  0  0  0  0  0  0  0  0  0
  -10.3557  -24.8009   29.5622 N   0  0  0  0  0  0  0  0  0  0  0  0
  -10.8371  -24.3259   30.7584 C   0  0  0  0  0  0  0  0  0  0  0  0
  -10.9360  -23.0808   31.2458 C   0  0  0  0  0  0  0  0  0  0  0  0
  -11.2844  -22.6320   32.6847 C   0  0  0  0  0  0  0  0  0  0  0  0
   -9.9336  -22.5892   33.2275 C   0  0  0  0  0  0  0  0  0  0  0  0
   -9.1547  -21.4704   33.2986 C   0  0  0  0  0  0  0  0  0  0  0  0
   -7.8625  -21.7087   33.0740 C   0  0  0  0  0  0  0  0  0  0  0  0
   -7.6150  -23.2916   32.7163 S   0  0  0  0  0  0  0  0  0  0  0  0
   -9.1523  -23.7127   33.2206 C   0  0  0  0  0  0  0  0  0  0  0  0
  -12.1406  -21.5051   33.1149 N   0  0  0  0  0  0  0  0  0  0  0  0
  -13.4677  -21.4715   32.5421 C   0  0  0  0  0  0  0  0  0  0  0  0
  -13.4399  -20.8541   31.1485 C   0  0  0  0  0  0  0  0  0  0  0  0
  -12.0579  -20.4800   30.5640 C   0  0  0  0  0  0  0  0  0  0  0  0
  -11.9854  -19.6971   29.3830 O   0  0  0  0  0  0  0  0  0  0  0  0
  -11.1542  -19.8780   31.6138 C   0  0  0  0  0  0  0  0  0  0  0  0
  -11.6943  -20.1293   33.0044 C   0  0  0  0  0  0  0  0  0  0  0  0
   -9.5019  -24.0101   28.7196 C   0  0  0  0  0  0  0  0  0  0  0  0
  -10.3840  -23.5454   27.5377 C   0  0  0  0  0  0  0  0  0  0  0  0
  -11.8647  -21.7327   25.7592 H   0  0  0  0  0  0  0  0  0  0  0  0
  -13.0749  -22.4054   24.6083 H   0  0  0  0  0  0  0  0  0  0  0  0
  -11.3449  -22.7882   24.4807 H   0  0  0  0  0  0  0  0  0  0  0  0
   -9.7188  -25.8323   27.0861 H   0  0  0  0  0  0  0  0  0  0  0  0
  -11.3347  -26.2712   26.7723 H   0  0  0  0  0  0  0  0  0  0  0  0
  -11.2382  -26.6449   29.0512 H   0  0  0  0  0  0  0  0  0  0  0  0
  -12.2547  -25.2024   28.7322 H   0  0  0  0  0  0  0  0  0  0  0  0
  -11.0939  -25.1666   31.3706 H   0  0  0  0  0  0  0  0  0  0  0  0
  -10.3803  -22.3637   30.6646 H   0  0  0  0  0  0  0  0  0  0  0  0
  -11.6502  -23.4426   33.2613 H   0  0  0  0  0  0  0  0  0  0  0  0
   -9.4521  -20.4675   33.2521 H   0  0  0  0  0  0  0  0  0  0  0  0
   -7.1418  -20.9228   32.9700 H   0  0  0  0  0  0  0  0  0  0  0  0
   -9.4570  -24.7411   33.0991 H   0  0  0  0  0  0  0  0  0  0  0  0
  -14.0294  -22.3905   32.6322 H   0  0  0  0  0  0  0  0  0  0  0  0
  -14.0946  -20.8209   33.1740 H   0  0  0  0  0  0  0  0  0  0  0  0
  -13.8372  -21.5883   30.4602 H   0  0  0  0  0  0  0  0  0  0  0  0
  -14.1262  -20.0022   31.1711 H   0  0  0  0  0  0  0  0  0  0  0  0
  -11.7219  -21.3949   30.1238 H   0  0  0  0  0  0  0  0  0  0  0  0
  -11.0900  -19.7443   28.9993 H   0  0  0  0  0  0  0  0  0  0  0  0
  -10.9599  -18.8207   31.5123 H   0  0  0  0  0  0  0  0  0  0  0  0
  -10.1816  -20.2989   31.4390 H   0  0  0  0  0  0  0  0  0  0  0  0
  -11.0622  -19.8529   33.8405 H   0  0  0  0  0  0  0  0  0  0  0  0
  -12.5193  -19.4201   33.1816 H   0  0  0  0  0  0  0  0  0  0  0  0
   -9.0599  -23.1489   29.2298 H   0  0  0  0  0  0  0  0  0  0  0  0
   -8.6660  -24.6427   28.4245 H   0  0  0  0  0  0  0  0  0  0  0  0
   -9.7411  -22.8853   26.9554 H   0  0  0  0  0  0  0  0  0  0  0  0
  -11.1384  -22.8623   27.9643 H   0  0  0  0  0  0  0  0  0  0  0  0
  1  2  1  0
  2  3  2  0
  2  4  1  0
  4  5  1  0
  5  6  1  0
  6  7  1  0
  7  8  1  0
  8  9  2  3
  9 10  1  0
 10 11  1  0
 11 12  1  0
 12 13  2  0
 13 14  1  0
 14 15  1  0
 10 16  1  0
 16 17  1  0
 17 18  1  0
 18 19  1  0
 19 20  1  0
 19 21  1  0
 21 22  1  0
  7 23  1  0
 23 24  1  0
 24  4  1  0
 15 11  2  0
 22 16  1  0
  1 25  1  0
  1 26  1  0
  1 27  1  0
  5 28  1  0
  5 29  1  0
  6 30  1  0
  6 31  1  0
  8 32  1  0
  9 33  1  0
 10 34  1  0
 12 35  1  0
 13 36  1  0
 15 37  1  0
 17 38  1  0
 17 39  1  0
 18 40  1  0
 18 41  1  0
 19 42  1  0
 20 43  1  0
 21 44  1  0
 21 45  1  0
 22 46  1  0
 22 47  1  0
 23 48  1  0
 23 49  1  0
 24 50  1  0
 24 51  1  0
M  END
>  <Energy>  (512) 
252.55786237791003

>  <compound_id>  (512) 
3489

>  <target_id>  (512) 
1

>  <reference_id>  (512) 
119

>  <inspiration_ids>  (512) 
[119, 64]

>  <energy_score>  (512) 
123.65910600243853

>  <distance_score>  (512) 
2.9866518622410583

>  <path>  (512) 
/opt/xchem-fragalysis-2/maxwin/BulkDock/SCRATCH/505734/C3489-P119/C3489-P119.minimised.mol

>  <scratch_subdir>  (512) 
/opt/xchem-fragalysis-2/maxwin/BulkDock/SCRATCH/505734/C3489-P119

>  <fragmenstein_runtime>  (512) 
16.80820345878601

>  <fragmenstein_outcome>  (512) 
too moved

>  <fragmenstein_mode>  (512) 
expansion

>  <fragmenstein_error>  (512) 


$$$$
C3489-P64
     RDKit          3D

 51 53  0  0  0  0  0  0  0  0999 V2000
  -19.2043  -26.4959   27.2244 C   0  0  0  0  0  0  0  0  0  0  0  0
  -18.2554  -25.6276   26.4251 C   0  0  0  0  0  0  0  0  0  0  0  0
  -18.4896  -24.4593   26.2718 O   0  0  0  0  0  0  0  0  0  0  0  0
  -17.1657  -26.4242   25.9623 N   0  0  0  0  0  0  0  0  0  0  0  0
  -16.0150  -26.0826   25.0349 C   0  0  0  0  0  0  0  0  0  0  0  0
  -14.7085  -25.2773   25.3099 C   0  0  0  0  0  0  0  0  0  0  0  0
  -13.7383  -26.0900   26.1285 N   0  0  0  0  0  0  0  0  0  0  0  0
  -12.7803  -25.4114   27.0068 C   0  0  0  0  0  0  0  0  0  0  0  0
  -11.1657  -24.9101   27.3093 C   0  0  0  0  0  0  0  0  0  0  0  0
  -10.3239  -24.5450   28.7029 C   0  0  0  0  0  0  0  0  0  0  0  0
  -10.5732  -24.3628   30.2220 C   0  0  0  0  0  0  0  0  0  0  0  0
  -10.0232  -25.1970   31.2531 C   0  0  0  0  0  0  0  0  0  0  0  0
  -10.3824  -24.7841   32.5169 C   0  0  0  0  0  0  0  0  0  0  0  0
  -11.3649  -23.3976   32.5079 S   0  0  0  0  0  0  0  0  0  0  0  0
  -11.3040  -23.3228   30.8196 C   0  0  0  0  0  0  0  0  0  0  0  0
  -11.6524  -24.9651   28.7071 N   0  0  0  0  0  0  0  0  0  0  0  0
  -12.2057  -23.3609   27.8247 C   0  0  0  0  0  0  0  0  0  0  0  0
  -12.1826  -23.5553   25.9510 C   0  0  0  0  0  0  0  0  0  0  0  0
  -11.4113  -25.1057   25.1930 C   0  0  0  0  0  0  0  0  0  0  0  0
  -10.3152  -24.5678   24.4970 O   0  0  0  0  0  0  0  0  0  0  0  0
  -10.9733  -26.7005   26.1389 C   0  0  0  0  0  0  0  0  0  0  0  0
  -11.1865  -26.7017   28.0053 C   0  0  0  0  0  0  0  0  0  0  0  0
  -14.6518  -27.0681   26.8284 C   0  0  0  0  0  0  0  0  0  0  0  0
  -16.0509  -26.4309   26.9990 C   0  0  0  0  0  0  0  0  0  0  0  0
  -18.9860  -27.5606   27.1001 H   0  0  0  0  0  0  0  0  0  0  0  0
  -20.2269  -26.3162   26.8804 H   0  0  0  0  0  0  0  0  0  0  0  0
  -19.1201  -26.2359   28.2830 H   0  0  0  0  0  0  0  0  0  0  0  0
  -16.5361  -25.4715   24.2827 H   0  0  0  0  0  0  0  0  0  0  0  0
  -15.7942  -27.0045   24.4857 H   0  0  0  0  0  0  0  0  0  0  0  0
  -14.9919  -24.3432   25.8005 H   0  0  0  0  0  0  0  0  0  0  0  0
  -14.2575  -25.0384   24.3466 H   0  0  0  0  0  0  0  0  0  0  0  0
  -13.5397  -24.9769   27.6486 H   0  0  0  0  0  0  0  0  0  0  0  0
  -10.2249  -24.9194   26.7252 H   0  0  0  0  0  0  0  0  0  0  0  0
   -9.9069  -23.5847   28.3791 H   0  0  0  0  0  0  0  0  0  0  0  0
   -9.4246  -26.0795   31.0825 H   0  0  0  0  0  0  0  0  0  0  0  0
  -10.1369  -25.2526   33.4546 H   0  0  0  0  0  0  0  0  0  0  0  0
  -11.8296  -22.5219   30.3293 H   0  0  0  0  0  0  0  0  0  0  0  0
  -13.1369  -23.1722   28.3266 H   0  0  0  0  0  0  0  0  0  0  0  0
  -11.5125  -22.5451   28.0812 H   0  0  0  0  0  0  0  0  0  0  0  0
  -11.7621  -22.6772   25.5106 H   0  0  0  0  0  0  0  0  0  0  0  0
  -13.2092  -23.5000   25.5979 H   0  0  0  0  0  0  0  0  0  0  0  0
  -12.1232  -25.6098   24.5761 H   0  0  0  0  0  0  0  0  0  0  0  0
  -10.5938  -23.7580   24.0377 H   0  0  0  0  0  0  0  0  0  0  0  0
  -11.6642  -27.4473   25.7583 H   0  0  0  0  0  0  0  0  0  0  0  0
   -9.9776  -27.0642   25.9084 H   0  0  0  0  0  0  0  0  0  0  0  0
  -11.9460  -27.4563   28.1762 H   0  0  0  0  0  0  0  0  0  0  0  0
  -10.2361  -26.9516   28.4953 H   0  0  0  0  0  0  0  0  0  0  0  0
  -14.7913  -27.9804   26.2642 H   0  0  0  0  0  0  0  0  0  0  0  0
  -14.2478  -27.3964   27.7812 H   0  0  0  0  0  0  0  0  0  0  0  0
  -15.9793  -25.4182   27.4010 H   0  0  0  0  0  0  0  0  0  0  0  0
  -16.5075  -26.9945   27.8277 H   0  0  0  0  0  0  0  0  0  0  0  0
  1  2  1  0
  2  3  2  0
  2  4  1  0
  4  5  1  0
  5  6  1  0
  6  7  1  0
  7  8  1  0
  8  9  2  3
  9 10  1  0
 10 11  1  0
 11 12  1  0
 12 13  2  0
 13 14  1  0
 14 15  1  0
 10 16  1  0
 16 17  1  0
 17 18  1  0
 18 19  1  0
 19 20  1  0
 19 21  1  0
 21 22  1  0
  7 23  1  0
 23 24  1  0
 24  4  1  0
 15 11  2  0
 22 16  1  0
  1 25  1  0
  1 26  1  0
  1 27  1  0
  5 28  1  0
  5 29  1  0
  6 30  1  0
  6 31  1  0
  8 32  1  0
  9 33  1  0
 10 34  1  0
 12 35  1  0
 13 36  1  0
 15 37  1  0
 17 38  1  0
 17 39  1  0
 18 40  1  0
 18 41  1  0
 19 42  1  0
 20 43  1  0
 21 44  1  0
 21 45  1  0
 22 46  1  0
 22 47  1  0
 23 48  1  0
 23 49  1  0
 24 50  1  0
 24 51  1  0
M  END
>  <Energy>  (513) 
993.69496758749199

>  <compound_id>  (513) 
3489

>  <target_id>  (513) 
1

>  <reference_id>  (513) 
64

>  <inspiration_ids>  (513) 
[119, 64]

>  <energy_score>  (513) 
864.7962112120291

>  <distance_score>  (513) 
5.08922590204498

>  <path>  (513) 
/opt/xchem-fragalysis-2/maxwin/BulkDock/SCRATCH/505734/C3489-P64/C3489-P64.minimised.mol

>  <scratch_subdir>  (513) 
/opt/xchem-fragalysis-2/maxwin/BulkDock/SCRATCH/505734/C3489-P64

>  <fragmenstein_runtime>  (513) 
23.264936208724976

>  <fragmenstein_outcome>  (513) 
too moved

>  <fragmenstein_mode>  (513) 
expansion

>  <fragmenstein_error>  (513) 


$$$$
C3491-P119
     RDKit          3D

 37 38  0  0  0  0  0  0  0  0999 V2000
   -9.9244  -21.7782   28.6554 C   0  0  0  0  0  0  0  0  0  0  0  0
   -9.6377  -23.1738   29.1331 C   0  0  0  0  0  0  0  0  0  0  0  0
  -10.1780  -24.2328   28.1717 C   0  0  0  0  0  0  0  0  0  0  0  0
   -9.4521  -25.3875   28.0553 C   0  0  0  0  0  0  0  0  0  0  0  0
  -10.1058  -26.5425   27.0261 S   0  0  0  0  0  0  0  0  0  0  0  0
  -11.3995  -25.5422   26.6425 C   0  0  0  0  0  0  0  0  0  0  0  0
  -11.2682  -24.3043   27.2164 C   0  0  0  0  0  0  0  0  0  0  0  0
  -12.2741  -23.0496   26.6335 S   0  0  0  0  0  0  0  0  0  0  0  0
  -13.8391  -23.8014   26.2359 C   0  0  0  0  0  0  0  0  0  0  0  0
  -12.3897  -22.2155   27.8014 O   0  0  0  0  0  0  0  0  0  0  0  0
  -11.6222  -22.6702   25.4007 O   0  0  0  0  0  0  0  0  0  0  0  0
   -9.9932  -23.5484   30.4763 N   0  0  0  0  0  0  0  0  0  0  0  0
  -11.3736  -23.3788   30.7442 C   0  0  0  0  0  0  0  0  0  0  0  0
  -11.7203  -22.1520   31.5463 C   0  0  0  0  0  0  0  0  0  0  0  0
  -11.0804  -22.2860   32.8946 C   0  0  0  0  0  0  0  0  0  0  0  0
  -11.4560  -21.1401   33.6367 O   0  0  0  0  0  0  0  0  0  0  0  0
   -9.5794  -22.4274   32.7385 C   0  0  0  0  0  0  0  0  0  0  0  0
   -9.1481  -23.4390   31.6550 C   0  0  0  0  0  0  0  0  0  0  0  0
  -10.2990  -21.7453   27.6434 H   0  0  0  0  0  0  0  0  0  0  0  0
  -10.5749  -21.1621   29.2701 H   0  0  0  0  0  0  0  0  0  0  0  0
   -8.9726  -21.2757   28.5173 H   0  0  0  0  0  0  0  0  0  0  0  0
   -8.5519  -23.2785   29.1150 H   0  0  0  0  0  0  0  0  0  0  0  0
   -8.4953  -25.5311   28.5327 H   0  0  0  0  0  0  0  0  0  0  0  0
  -12.1356  -25.8811   25.9301 H   0  0  0  0  0  0  0  0  0  0  0  0
  -13.7205  -24.5293   25.4347 H   0  0  0  0  0  0  0  0  0  0  0  0
  -14.5060  -23.0208   25.8671 H   0  0  0  0  0  0  0  0  0  0  0  0
  -14.2547  -24.2720   27.1287 H   0  0  0  0  0  0  0  0  0  0  0  0
  -11.5088  -24.2783   31.3137 H   0  0  0  0  0  0  0  0  0  0  0  0
  -11.9927  -23.4385   29.8518 H   0  0  0  0  0  0  0  0  0  0  0  0
  -12.7956  -22.0071   31.6722 H   0  0  0  0  0  0  0  0  0  0  0  0
  -11.3895  -21.2233   31.0732 H   0  0  0  0  0  0  0  0  0  0  0  0
  -11.4622  -23.1391   33.4376 H   0  0  0  0  0  0  0  0  0  0  0  0
  -11.3948  -21.3679   34.5855 H   0  0  0  0  0  0  0  0  0  0  0  0
   -9.1318  -22.7069   33.7003 H   0  0  0  0  0  0  0  0  0  0  0  0
   -9.1676  -21.4432   32.5158 H   0  0  0  0  0  0  0  0  0  0  0  0
   -9.1341  -24.4309   32.1238 H   0  0  0  0  0  0  0  0  0  0  0  0
   -8.1128  -23.2343   31.3789 H   0  0  0  0  0  0  0  0  0  0  0  0
  1  2  1  0
  2  3  1  0
  3  4  2  0
  4  5  1  0
  5  6  1  0
  6  7  2  0
  7  8  1  0
  8  9  1  0
  8 10  2  0
  8 11  2  0
  2 12  1  0
 12 13  1  0
 13 14  1  0
 14 15  1  0
 15 16  1  0
 15 17  1  0
 17 18  1  0
  7  3  1  0
 18 12  1  0
  1 19  1  0
  1 20  1  0
  1 21  1  0
  2 22  1  0
  4 23  1  0
  6 24  1  0
  9 25  1  0
  9 26  1  0
  9 27  1  0
 13 28  1  0
 13 29  1  0
 14 30  1  0
 14 31  1  0
 15 32  1  0
 16 33  1  0
 17 34  1  0
 17 35  1  0
 18 36  1  0
 18 37  1  0
M  END
>  <Energy>  (514) 
75.692086991077474

>  <compound_id>  (514) 
3491

>  <target_id>  (514) 
1

>  <reference_id>  (514) 
119

>  <inspiration_ids>  (514) 
[119, 82]

>  <energy_score>  (514) 
-27.44673803269751

>  <distance_score>  (514) 
2.5016759529458996

>  <path>  (514) 
/opt/xchem-fragalysis-2/maxwin/BulkDock/SCRATCH/505734/C3491-P119/C3491-P119.minimised.mol

>  <scratch_subdir>  (514) 
/opt/xchem-fragalysis-2/maxwin/BulkDock/SCRATCH/505734/C3491-P119

>  <fragmenstein_runtime>  (514) 
8.473043203353882

>  <fragmenstein_outcome>  (514) 
too moved

>  <fragmenstein_mode>  (514) 
expansion

>  <fragmenstein_error>  (514) 


$$$$
C3491-P82
     RDKit          3D

 37 38  0  0  0  0  0  0  0  0999 V2000
  -11.4238  -22.8269   29.1366 C   0  0  0  0  0  0  0  0  0  0  0  0
  -10.9985  -24.2878   29.1501 C   0  0  0  0  0  0  0  0  0  0  0  0
  -11.6561  -25.2349   28.1185 C   0  0  0  0  0  0  0  0  0  0  0  0
  -11.6611  -26.6011   28.3826 C   0  0  0  0  0  0  0  0  0  0  0  0
  -12.4510  -27.5622   27.2368 S   0  0  0  0  0  0  0  0  0  0  0  0
  -12.7412  -26.2212   26.2694 C   0  0  0  0  0  0  0  0  0  0  0  0
  -12.2276  -25.0564   26.7991 C   0  0  0  0  0  0  0  0  0  0  0  0
  -12.1707  -23.7101   25.7362 S   0  0  0  0  0  0  0  0  0  0  0  0
  -13.7264  -23.6957   24.8757 C   0  0  0  0  0  0  0  0  0  0  0  0
  -12.0501  -22.5778   26.6059 O   0  0  0  0  0  0  0  0  0  0  0  0
  -11.1266  -24.1196   24.8236 O   0  0  0  0  0  0  0  0  0  0  0  0
  -11.2281  -24.8899   30.4578 N   0  0  0  0  0  0  0  0  0  0  0  0
  -12.5374  -24.7376   31.0053 C   0  0  0  0  0  0  0  0  0  0  0  0
  -12.8814  -23.5214   31.8133 C   0  0  0  0  0  0  0  0  0  0  0  0
  -11.7371  -23.1503   32.7139 C   0  0  0  0  0  0  0  0  0  0  0  0
  -11.3401  -21.8352   32.3311 O   0  0  0  0  0  0  0  0  0  0  0  0
  -10.5523  -24.1316   32.7230 C   0  0  0  0  0  0  0  0  0  0  0  0
  -10.2233  -24.9333   31.4706 C   0  0  0  0  0  0  0  0  0  0  0  0
  -12.4822  -22.7045   28.9096 H   0  0  0  0  0  0  0  0  0  0  0  0
  -11.2576  -22.3001   30.0666 H   0  0  0  0  0  0  0  0  0  0  0  0
  -10.8225  -22.2683   28.4170 H   0  0  0  0  0  0  0  0  0  0  0  0
   -9.9437  -24.3945   28.8920 H   0  0  0  0  0  0  0  0  0  0  0  0
  -11.2527  -27.0800   29.2637 H   0  0  0  0  0  0  0  0  0  0  0  0
  -13.1967  -26.3846   25.3044 H   0  0  0  0  0  0  0  0  0  0  0  0
  -13.8910  -24.5889   24.2843 H   0  0  0  0  0  0  0  0  0  0  0  0
  -14.5168  -23.6909   25.6041 H   0  0  0  0  0  0  0  0  0  0  0  0
  -13.7618  -22.8255   24.2202 H   0  0  0  0  0  0  0  0  0  0  0  0
  -12.5976  -25.5547   31.7028 H   0  0  0  0  0  0  0  0  0  0  0  0
  -13.2576  -24.8534   30.2114 H   0  0  0  0  0  0  0  0  0  0  0  0
  -13.7593  -23.7511   32.4307 H   0  0  0  0  0  0  0  0  0  0  0  0
  -13.1921  -22.6871   31.1756 H   0  0  0  0  0  0  0  0  0  0  0  0
  -12.0987  -23.0627   33.7449 H   0  0  0  0  0  0  0  0  0  0  0  0
  -11.8878  -21.2142   32.8417 H   0  0  0  0  0  0  0  0  0  0  0  0
  -10.7558  -24.8664   33.5137 H   0  0  0  0  0  0  0  0  0  0  0  0
   -9.6304  -23.6076   32.9694 H   0  0  0  0  0  0  0  0  0  0  0  0
  -10.1132  -25.9824   31.7769 H   0  0  0  0  0  0  0  0  0  0  0  0
   -9.2424  -24.7003   31.0747 H   0  0  0  0  0  0  0  0  0  0  0  0
  1  2  1  0
  2  3  1  0
  3  4  2  0
  4  5  1  0
  5  6  1  0
  6  7  2  0
  7  8  1  0
  8  9  1  0
  8 10  2  0
  8 11  2  0
  2 12  1  0
 12 13  1  0
 13 14  1  0
 14 15  1  0
 15 16  1  0
 15 17  1  0
 17 18  1  0
  7  3  1  0
 18 12  1  0
  1 19  1  0
  1 20  1  0
  1 21  1  0
  2 22  1  0
  4 23  1  0
  6 24  1  0
  9 25  1  0
  9 26  1  0
  9 27  1  0
 13 28  1  0
 13 29  1  0
 14 30  1  0
 14 31  1  0
 15 32  1  0
 16 33  1  0
 17 34  1  0
 17 35  1  0
 18 36  1  0
 18 37  1  0
M  END
>  <Energy>  (515) 
79.197612404797695

>  <compound_id>  (515) 
3491

>  <target_id>  (515) 
1

>  <reference_id>  (515) 
82

>  <inspiration_ids>  (515) 
[119, 82]

>  <energy_score>  (515) 
-23.941212618978653

>  <distance_score>  (515) 
2.36450791101758

>  <path>  (515) 
/opt/xchem-fragalysis-2/maxwin/BulkDock/SCRATCH/505734/C3491-P82/C3491-P82.minimised.mol

>  <scratch_subdir>  (515) 
/opt/xchem-fragalysis-2/maxwin/BulkDock/SCRATCH/505734/C3491-P82

>  <fragmenstein_runtime>  (515) 
5.171177625656128

>  <fragmenstein_outcome>  (515) 
too moved

>  <fragmenstein_mode>  (515) 
expansion

>  <fragmenstein_error>  (515) 


$$$$
C3493-P119
     RDKit          3D

 44 46  0  0  0  0  0  0  0  0999 V2000
  -11.3891  -20.8193   28.8254 O   0  0  0  0  0  0  0  0  0  0  0  0
  -12.0318  -21.7013   29.2582 C   0  0  0  0  0  0  0  0  0  0  0  0
  -12.9284  -21.7702   30.5510 N   0  0  0  0  0  0  0  0  0  0  0  0
  -13.1206  -20.8443   31.5609 C   0  0  0  0  0  0  0  0  0  0  0  0
  -14.2713  -20.7195   32.3104 C   0  0  0  0  0  0  0  0  0  0  0  0
  -14.1210  -19.6179   33.6070 S   0  0  0  0  0  0  0  0  0  0  0  0
  -12.4311  -19.5487   33.3791 C   0  0  0  0  0  0  0  0  0  0  0  0
  -12.0335  -20.3069   32.2961 C   0  0  0  0  0  0  0  0  0  0  0  0
  -10.6438  -20.6755   31.9472 C   0  0  0  0  0  0  0  0  0  0  0  0
  -10.5503  -22.1249   31.9451 N   0  0  0  0  0  0  0  0  0  0  0  0
   -9.7070  -22.7740   30.9632 C   0  0  0  0  0  0  0  0  0  0  0  0
   -9.8541  -24.2661   31.0286 C   0  0  0  0  0  0  0  0  0  0  0  0
   -9.1694  -24.6287   32.3050 C   0  0  0  0  0  0  0  0  0  0  0  0
   -9.5885  -25.9041   32.7158 O   0  0  0  0  0  0  0  0  0  0  0  0
   -9.2926  -23.5628   33.4153 C   0  0  0  0  0  0  0  0  0  0  0  0
  -10.4943  -22.6686   33.2717 C   0  0  0  0  0  0  0  0  0  0  0  0
  -12.0151  -23.1888   28.5806 C   0  0  0  0  0  0  0  0  0  0  0  0
  -10.6887  -23.4538   27.7946 C   0  0  0  0  0  0  0  0  0  0  0  0
  -10.7971  -23.6033   26.3741 O   0  0  0  0  0  0  0  0  0  0  0  0
  -11.9558  -22.9064   25.9437 C   0  0  0  0  0  0  0  0  0  0  0  0
  -13.1365  -23.6824   26.5010 C   0  0  0  0  0  0  0  0  0  0  0  0
  -13.1374  -23.7908   27.9407 O   0  0  0  0  0  0  0  0  0  0  0  0
  -13.4052  -22.6501   30.5823 H   0  0  0  0  0  0  0  0  0  0  0  0
  -15.2160  -21.2185   32.1812 H   0  0  0  0  0  0  0  0  0  0  0  0
  -11.8080  -19.0197   34.0852 H   0  0  0  0  0  0  0  0  0  0  0  0
   -9.9190  -20.2418   32.6315 H   0  0  0  0  0  0  0  0  0  0  0  0
  -10.4546  -20.2241   30.9725 H   0  0  0  0  0  0  0  0  0  0  0  0
   -9.9065  -22.4370   29.9634 H   0  0  0  0  0  0  0  0  0  0  0  0
   -8.6538  -22.5624   31.1593 H   0  0  0  0  0  0  0  0  0  0  0  0
   -9.3574  -24.7580   30.1866 H   0  0  0  0  0  0  0  0  0  0  0  0
  -10.8874  -24.6059   31.0301 H   0  0  0  0  0  0  0  0  0  0  0  0
   -8.1080  -24.7186   32.0805 H   0  0  0  0  0  0  0  0  0  0  0  0
   -8.8639  -26.1805   33.3161 H   0  0  0  0  0  0  0  0  0  0  0  0
   -9.3086  -23.9644   34.4282 H   0  0  0  0  0  0  0  0  0  0  0  0
   -8.3945  -22.9268   33.3814 H   0  0  0  0  0  0  0  0  0  0  0  0
  -10.4373  -21.9002   34.0508 H   0  0  0  0  0  0  0  0  0  0  0  0
  -11.4271  -23.1790   33.4674 H   0  0  0  0  0  0  0  0  0  0  0  0
  -11.9048  -23.8086   29.4669 H   0  0  0  0  0  0  0  0  0  0  0  0
  -10.2593  -24.4005   28.1376 H   0  0  0  0  0  0  0  0  0  0  0  0
   -9.9343  -22.6832   27.9665 H   0  0  0  0  0  0  0  0  0  0  0  0
  -11.8810  -21.8913   26.3219 H   0  0  0  0  0  0  0  0  0  0  0  0
  -11.9762  -22.8484   24.8551 H   0  0  0  0  0  0  0  0  0  0  0  0
  -13.1142  -24.7128   26.1285 H   0  0  0  0  0  0  0  0  0  0  0  0
  -14.0846  -23.2480   26.1733 H   0  0  0  0  0  0  0  0  0  0  0  0
  1  2  2  0
  2  3  1  0
  3  4  1  0
  4  5  2  0
  5  6  1  0
  6  7  1  0
  7  8  2  0
  8  9  1  0
  9 10  1  0
 10 11  1  0
 11 12  1  0
 12 13  1  0
 13 14  1  0
 13 15  1  0
 15 16  1  0
  2 17  1  0
 17 18  1  0
 18 19  1  0
 19 20  1  0
 20 21  1  0
 21 22  1  0
  8  4  1  0
 16 10  1  0
 22 17  1  0
  3 23  1  0
  5 24  1  0
  7 25  1  0
  9 26  1  0
  9 27  1  0
 11 28  1  0
 11 29  1  0
 12 30  1  0
 12 31  1  0
 13 32  1  0
 14 33  1  0
 15 34  1  0
 15 35  1  0
 16 36  1  0
 16 37  1  0
 17 38  1  0
 18 39  1  0
 18 40  1  0
 20 41  1  0
 20 42  1  0
 21 43  1  0
 21 44  1  0
M  END
>  <Energy>  (516) 
154.11398614134768

>  <compound_id>  (516) 
3493

>  <target_id>  (516) 
1

>  <reference_id>  (516) 
119

>  <inspiration_ids>  (516) 
[119, 94]

>  <energy_score>  (516) 
22.42259257940816

>  <distance_score>  (516) 
2.6303849708175107

>  <path>  (516) 
/opt/xchem-fragalysis-2/maxwin/BulkDock/SCRATCH/505734/C3493-P119/C3493-P119.minimised.mol

>  <scratch_subdir>  (516) 
/opt/xchem-fragalysis-2/maxwin/BulkDock/SCRATCH/505734/C3493-P119

>  <fragmenstein_runtime>  (516) 
8.709411859512329

>  <fragmenstein_outcome>  (516) 
too moved

>  <fragmenstein_mode>  (516) 
expansion

>  <fragmenstein_error>  (516) 


$$$$
C3493-P94
     RDKit          3D

 44 46  0  0  0  0  0  0  0  0999 V2000
  -11.0478  -21.2397   29.6282 O   0  0  0  0  0  0  0  0  0  0  0  0
  -11.7478  -22.1490   29.4384 C   0  0  0  0  0  0  0  0  0  0  0  0
  -13.0664  -22.5456   30.1121 N   0  0  0  0  0  0  0  0  0  0  0  0
  -13.7576  -21.9620   31.2263 C   0  0  0  0  0  0  0  0  0  0  0  0
  -15.1395  -21.7307   31.2223 C   0  0  0  0  0  0  0  0  0  0  0  0
  -15.7812  -21.0714   32.6548 S   0  0  0  0  0  0  0  0  0  0  0  0
  -14.2766  -21.2426   33.4094 C   0  0  0  0  0  0  0  0  0  0  0  0
  -13.2991  -21.7844   32.5868 C   0  0  0  0  0  0  0  0  0  0  0  0
  -11.9677  -22.1464   33.1187 C   0  0  0  0  0  0  0  0  0  0  0  0
  -11.6655  -23.4996   32.7213 N   0  0  0  0  0  0  0  0  0  0  0  0
  -10.5714  -23.6287   31.8284 C   0  0  0  0  0  0  0  0  0  0  0  0
  -10.6941  -24.9441   31.1051 C   0  0  0  0  0  0  0  0  0  0  0  0
  -10.2612  -25.9959   32.0583 C   0  0  0  0  0  0  0  0  0  0  0  0
  -10.8034  -27.2672   31.7170 O   0  0  0  0  0  0  0  0  0  0  0  0
  -10.5604  -25.5964   33.5037 C   0  0  0  0  0  0  0  0  0  0  0  0
  -11.6681  -24.5352   33.7064 C   0  0  0  0  0  0  0  0  0  0  0  0
  -11.4425  -23.3832   28.4145 C   0  0  0  0  0  0  0  0  0  0  0  0
  -11.5969  -23.1713   26.9228 C   0  0  0  0  0  0  0  0  0  0  0  0
  -12.6494  -23.9091   26.2882 O   0  0  0  0  0  0  0  0  0  0  0  0
  -12.5116  -25.3192   26.4911 C   0  0  0  0  0  0  0  0  0  0  0  0
  -11.7448  -25.6556   27.7650 C   0  0  0  0  0  0  0  0  0  0  0  0
  -12.0142  -24.6588   28.7504 O   0  0  0  0  0  0  0  0  0  0  0  0
  -13.4504  -23.3475   29.6480 H   0  0  0  0  0  0  0  0  0  0  0  0
  -15.8538  -21.9523   30.4484 H   0  0  0  0  0  0  0  0  0  0  0  0
  -14.1710  -20.9675   34.4446 H   0  0  0  0  0  0  0  0  0  0  0  0
  -11.9540  -22.0252   34.2037 H   0  0  0  0  0  0  0  0  0  0  0  0
  -11.2609  -21.4136   32.7110 H   0  0  0  0  0  0  0  0  0  0  0  0
  -10.6202  -22.7910   31.1789 H   0  0  0  0  0  0  0  0  0  0  0  0
   -9.6316  -23.5633   32.3836 H   0  0  0  0  0  0  0  0  0  0  0  0
  -10.0596  -24.9964   30.2172 H   0  0  0  0  0  0  0  0  0  0  0  0
  -11.7254  -25.1443   30.8276 H   0  0  0  0  0  0  0  0  0  0  0  0
   -9.1729  -26.0604   31.9309 H   0  0  0  0  0  0  0  0  0  0  0  0
  -10.1367  -27.8760   32.1069 H   0  0  0  0  0  0  0  0  0  0  0  0
  -10.7502  -26.4610   34.1258 H   0  0  0  0  0  0  0  0  0  0  0  0
   -9.6235  -25.1902   33.9009 H   0  0  0  0  0  0  0  0  0  0  0  0
  -12.6609  -24.9684   33.7210 H   0  0  0  0  0  0  0  0  0  0  0  0
  -11.5130  -24.0988   34.6845 H   0  0  0  0  0  0  0  0  0  0  0  0
  -10.3649  -23.5136   28.5526 H   0  0  0  0  0  0  0  0  0  0  0  0
  -11.6401  -22.1147   26.6936 H   0  0  0  0  0  0  0  0  0  0  0  0
  -10.6985  -23.5787   26.4548 H   0  0  0  0  0  0  0  0  0  0  0  0
  -12.0239  -25.7656   25.6186 H   0  0  0  0  0  0  0  0  0  0  0  0
  -13.5257  -25.7286   26.5423 H   0  0  0  0  0  0  0  0  0  0  0  0
  -12.0507  -26.6339   28.1482 H   0  0  0  0  0  0  0  0  0  0  0  0
  -10.6644  -25.7059   27.5837 H   0  0  0  0  0  0  0  0  0  0  0  0
  1  2  2  0
  2  3  1  0
  3  4  1  0
  4  5  2  0
  5  6  1  0
  6  7  1  0
  7  8  2  0
  8  9  1  0
  9 10  1  0
 10 11  1  0
 11 12  1  0
 12 13  1  0
 13 14  1  0
 13 15  1  0
 15 16  1  0
  2 17  1  0
 17 18  1  0
 18 19  1  0
 19 20  1  0
 20 21  1  0
 21 22  1  0
  8  4  1  0
 16 10  1  0
 22 17  1  0
  3 23  1  0
  5 24  1  0
  7 25  1  0
  9 26  1  0
  9 27  1  0
 11 28  1  0
 11 29  1  0
 12 30  1  0
 12 31  1  0
 13 32  1  0
 14 33  1  0
 15 34  1  0
 15 35  1  0
 16 36  1  0
 16 37  1  0
 17 38  1  0
 18 39  1  0
 18 40  1  0
 20 41  1  0
 20 42  1  0
 21 43  1  0
 21 44  1  0
M  END
>  <Energy>  (517) 
161.22552482178079

>  <compound_id>  (517) 
3493

>  <target_id>  (517) 
1

>  <reference_id>  (517) 
94

>  <inspiration_ids>  (517) 
[119, 94]

>  <energy_score>  (517) 
29.534131259842013

>  <distance_score>  (517) 
2.3337920472767166

>  <path>  (517) 
/opt/xchem-fragalysis-2/maxwin/BulkDock/SCRATCH/505734/C3493-P94/C3493-P94.minimised.mol

>  <scratch_subdir>  (517) 
/opt/xchem-fragalysis-2/maxwin/BulkDock/SCRATCH/505734/C3493-P94

>  <fragmenstein_runtime>  (517) 
10.664411783218384

>  <fragmenstein_outcome>  (517) 
too moved

>  <fragmenstein_mode>  (517) 
expansion

>  <fragmenstein_error>  (517) 


$$$$
C3494-P119
     RDKit          3D

 30 31  0  0  0  0  0  0  0  0999 V2000
  -12.7077  -23.0561   25.5052 N   0  0  0  0  0  0  0  0  0  0  0  0
  -11.9698  -23.6386   26.4615 C   0  0  0  0  0  0  0  0  0  0  0  0
  -11.3434  -22.9374   27.4449 C   0  0  0  0  0  0  0  0  0  0  0  0
  -11.2228  -23.7804   28.5686 C   0  0  0  0  0  0  0  0  0  0  0  0
  -11.4091  -23.2540   29.9212 C   0  0  0  0  0  0  0  0  0  0  0  0
  -10.2800  -22.4958   30.3894 N   0  0  0  0  0  0  0  0  0  0  0  0
  -10.7618  -21.5876   31.4545 C   0  0  0  0  0  0  0  0  0  0  0  0
   -9.9671  -21.6411   32.7419 C   0  0  0  0  0  0  0  0  0  0  0  0
   -9.8962  -23.0648   33.2173 C   0  0  0  0  0  0  0  0  0  0  0  0
   -9.0598  -23.1326   34.3667 O   0  0  0  0  0  0  0  0  0  0  0  0
   -9.4721  -24.0707   32.1415 C   0  0  0  0  0  0  0  0  0  0  0  0
   -9.2188  -23.4110   30.8079 C   0  0  0  0  0  0  0  0  0  0  0  0
  -11.1599  -25.1153   28.2336 C   0  0  0  0  0  0  0  0  0  0  0  0
  -11.7503  -25.3228   26.6563 S   0  0  0  0  0  0  0  0  0  0  0  0
  -13.4839  -23.5703   25.1098 H   0  0  0  0  0  0  0  0  0  0  0  0
  -12.9462  -22.0589   25.6211 H   0  0  0  0  0  0  0  0  0  0  0  0
  -11.3562  -21.8543   27.4960 H   0  0  0  0  0  0  0  0  0  0  0  0
  -11.5975  -24.0707   30.6017 H   0  0  0  0  0  0  0  0  0  0  0  0
  -12.2966  -22.6114   29.8668 H   0  0  0  0  0  0  0  0  0  0  0  0
  -11.8080  -21.7895   31.7267 H   0  0  0  0  0  0  0  0  0  0  0  0
  -10.7660  -20.5623   31.0654 H   0  0  0  0  0  0  0  0  0  0  0  0
   -8.9562  -21.2533   32.6613 H   0  0  0  0  0  0  0  0  0  0  0  0
  -10.4613  -21.0182   33.4963 H   0  0  0  0  0  0  0  0  0  0  0  0
  -10.9161  -23.2746   33.5342 H   0  0  0  0  0  0  0  0  0  0  0  0
   -8.4119  -23.8471   34.1926 H   0  0  0  0  0  0  0  0  0  0  0  0
  -10.2338  -24.8476   32.0444 H   0  0  0  0  0  0  0  0  0  0  0  0
   -8.5585  -24.6054   32.3870 H   0  0  0  0  0  0  0  0  0  0  0  0
   -8.2790  -22.8724   30.8959 H   0  0  0  0  0  0  0  0  0  0  0  0
   -9.0136  -24.1714   30.0448 H   0  0  0  0  0  0  0  0  0  0  0  0
  -10.9992  -25.9609   28.8863 H   0  0  0  0  0  0  0  0  0  0  0  0
  1  2  1  0
  2  3  2  0
  3  4  1  0
  4  5  1  0
  5  6  1  0
  6  7  1  0
  7  8  1  0
  8  9  1  0
  9 10  1  0
  9 11  1  0
 11 12  1  0
  4 13  2  0
 13 14  1  0
 14  2  1  0
 12  6  1  0
  1 15  1  0
  1 16  1  0
  3 17  1  0
  5 18  1  0
  5 19  1  0
  7 20  1  0
  7 21  1  0
  8 22  1  0
  8 23  1  0
  9 24  1  0
 10 25  1  0
 11 26  1  0
 11 27  1  0
 12 28  1  0
 12 29  1  0
 13 30  1  0
M  END
>  <Energy>  (518) 
23.417227353102369

>  <compound_id>  (518) 
3494

>  <target_id>  (518) 
1

>  <reference_id>  (518) 
119

>  <inspiration_ids>  (518) 
[119, 101]

>  <energy_score>  (518) 
-31.86704153217447

>  <distance_score>  (518) 
1.9302315069402969

>  <path>  (518) 
/opt/xchem-fragalysis-2/maxwin/BulkDock/SCRATCH/505734/C3494-P119/C3494-P119.minimised.mol

>  <scratch_subdir>  (518) 
/opt/xchem-fragalysis-2/maxwin/BulkDock/SCRATCH/505734/C3494-P119

>  <fragmenstein_runtime>  (518) 
4.275355577468872

>  <fragmenstein_outcome>  (518) 
too moved

>  <fragmenstein_mode>  (518) 
expansion

>  <fragmenstein_error>  (518) 


$$$$
C3494-P101
     RDKit          3D

 30 31  0  0  0  0  0  0  0  0999 V2000
  -14.2875  -24.6325   25.3327 N   0  0  0  0  0  0  0  0  0  0  0  0
  -13.1367  -25.0002   25.9162 C   0  0  0  0  0  0  0  0  0  0  0  0
  -12.1355  -24.1346   26.2212 C   0  0  0  0  0  0  0  0  0  0  0  0
  -11.3060  -24.6772   27.2210 C   0  0  0  0  0  0  0  0  0  0  0  0
  -10.5191  -23.8004   28.0773 C   0  0  0  0  0  0  0  0  0  0  0  0
  -10.8978  -23.9315   29.4454 N   0  0  0  0  0  0  0  0  0  0  0  0
  -12.0296  -23.1698   29.9042 C   0  0  0  0  0  0  0  0  0  0  0  0
  -11.8406  -22.7777   31.3521 C   0  0  0  0  0  0  0  0  0  0  0  0
  -11.3411  -23.9312   32.1995 C   0  0  0  0  0  0  0  0  0  0  0  0
  -10.8755  -23.3679   33.3923 O   0  0  0  0  0  0  0  0  0  0  0  0
  -10.1924  -24.7199   31.6030 C   0  0  0  0  0  0  0  0  0  0  0  0
  -10.4397  -25.0878   30.1683 C   0  0  0  0  0  0  0  0  0  0  0  0
  -11.3982  -26.0497   27.2702 C   0  0  0  0  0  0  0  0  0  0  0  0
  -12.7316  -26.5893   26.3616 S   0  0  0  0  0  0  0  0  0  0  0  0
  -15.0844  -25.2525   25.4429 H   0  0  0  0  0  0  0  0  0  0  0  0
  -14.5334  -23.6429   25.3666 H   0  0  0  0  0  0  0  0  0  0  0  0
  -12.1588  -23.0933   25.9433 H   0  0  0  0  0  0  0  0  0  0  0  0
  -10.7047  -22.7617   27.8026 H   0  0  0  0  0  0  0  0  0  0  0  0
   -9.4569  -23.9779   27.9459 H   0  0  0  0  0  0  0  0  0  0  0  0
  -12.9589  -23.7048   29.7243 H   0  0  0  0  0  0  0  0  0  0  0  0
  -12.1264  -22.2345   29.3389 H   0  0  0  0  0  0  0  0  0  0  0  0
  -11.1403  -21.9342   31.4176 H   0  0  0  0  0  0  0  0  0  0  0  0
  -12.7815  -22.3925   31.7648 H   0  0  0  0  0  0  0  0  0  0  0  0
  -12.1621  -24.5860   32.4739 H   0  0  0  0  0  0  0  0  0  0  0  0
   -9.9240  -23.2276   33.2646 H   0  0  0  0  0  0  0  0  0  0  0  0
   -9.9680  -25.5849   32.2184 H   0  0  0  0  0  0  0  0  0  0  0  0
   -9.2576  -24.1762   31.6922 H   0  0  0  0  0  0  0  0  0  0  0  0
   -9.4964  -25.4564   29.7525 H   0  0  0  0  0  0  0  0  0  0  0  0
  -11.1391  -25.9079   30.0789 H   0  0  0  0  0  0  0  0  0  0  0  0
  -10.8335  -26.7356   27.8833 H   0  0  0  0  0  0  0  0  0  0  0  0
  1  2  1  0
  2  3  2  0
  3  4  1  0
  4  5  1  0
  5  6  1  0
  6  7  1  0
  7  8  1  0
  8  9  1  0
  9 10  1  0
  9 11  1  0
 11 12  1  0
  4 13  2  0
 13 14  1  0
 14  2  1  0
 12  6  1  0
  1 15  1  0
  1 16  1  0
  3 17  1  0
  5 18  1  0
  5 19  1  0
  7 20  1  0
  7 21  1  0
  8 22  1  0
  8 23  1  0
  9 24  1  0
 10 25  1  0
 11 26  1  0
 11 27  1  0
 12 28  1  0
 12 29  1  0
 13 30  1  0
M  END
>  <Energy>  (519) 
12.925630390303482

>  <compound_id>  (519) 
3494

>  <target_id>  (519) 
1

>  <reference_id>  (519) 
101

>  <inspiration_ids>  (519) 
[119, 101]

>  <energy_score>  (519) 
-42.35863849497338

>  <distance_score>  (519) 
2.1167170426365463

>  <path>  (519) 
/opt/xchem-fragalysis-2/maxwin/BulkDock/SCRATCH/505734/C3494-P101/C3494-P101.minimised.mol

>  <scratch_subdir>  (519) 
/opt/xchem-fragalysis-2/maxwin/BulkDock/SCRATCH/505734/C3494-P101

>  <fragmenstein_runtime>  (519) 
3.96520733833313

>  <fragmenstein_outcome>  (519) 
too moved

>  <fragmenstein_mode>  (519) 
expansion

>  <fragmenstein_error>  (519) 


$$$$
C3496-P119
     RDKit          3D

 41 43  0  0  0  0  0  0  0  0999 V2000
  -10.0559  -25.9002   27.5889 C   0  0  0  0  0  0  0  0  0  0  0  0
  -10.8555  -24.6714   27.4468 C   0  0  0  0  0  0  0  0  0  0  0  0
  -12.1499  -24.6937   26.3581 S   0  0  0  0  0  0  0  0  0  0  0  0
  -12.2102  -23.0027   26.3692 C   0  0  0  0  0  0  0  0  0  0  0  0
  -11.5739  -22.5006   27.4824 C   0  0  0  0  0  0  0  0  0  0  0  0
  -10.9214  -23.5234   28.2317 C   0  0  0  0  0  0  0  0  0  0  0  0
  -10.5171  -23.4473   29.6926 C   0  0  0  0  0  0  0  0  0  0  0  0
  -10.9213  -24.7741   30.3100 C   0  0  0  0  0  0  0  0  0  0  0  0
   -9.0326  -23.3821   29.9851 C   0  0  0  0  0  0  0  0  0  0  0  0
   -8.9833  -23.0035   31.4847 C   0  0  0  0  0  0  0  0  0  0  0  0
   -8.8722  -24.1615   32.4220 C   0  0  0  0  0  0  0  0  0  0  0  0
  -10.1853  -22.0824   31.7640 C   0  0  0  0  0  0  0  0  0  0  0  0
  -11.0247  -22.3191   33.0094 C   0  0  0  0  0  0  0  0  0  0  0  0
  -10.2568  -22.2429   34.2042 O   0  0  0  0  0  0  0  0  0  0  0  0
  -12.2010  -21.3470   33.0736 C   0  0  0  0  0  0  0  0  0  0  0  0
  -12.5854  -20.8178   31.6962 C   0  0  0  0  0  0  0  0  0  0  0  0
  -12.4012  -21.7848   30.6163 N   0  0  0  0  0  0  0  0  0  0  0  0
  -10.9960  -22.1371   30.4484 C   0  0  0  0  0  0  0  0  0  0  0  0
   -9.0994  -25.6595   28.0510 H   0  0  0  0  0  0  0  0  0  0  0  0
  -10.5973  -26.6487   28.1742 H   0  0  0  0  0  0  0  0  0  0  0  0
   -9.8292  -26.3494   26.6160 H   0  0  0  0  0  0  0  0  0  0  0  0
  -12.8075  -22.4792   25.6381 H   0  0  0  0  0  0  0  0  0  0  0  0
  -11.6596  -21.4642   27.7821 H   0  0  0  0  0  0  0  0  0  0  0  0
  -11.2254  -24.6429   31.3281 H   0  0  0  0  0  0  0  0  0  0  0  0
  -11.7000  -25.2346   29.7203 H   0  0  0  0  0  0  0  0  0  0  0  0
  -10.1258  -25.5253   30.3259 H   0  0  0  0  0  0  0  0  0  0  0  0
   -8.4930  -24.3049   29.7630 H   0  0  0  0  0  0  0  0  0  0  0  0
   -8.5891  -22.6302   29.3363 H   0  0  0  0  0  0  0  0  0  0  0  0
   -8.0711  -22.4612   31.6903 H   0  0  0  0  0  0  0  0  0  0  0  0
   -9.7687  -24.7447   32.5999 H   0  0  0  0  0  0  0  0  0  0  0  0
   -8.5796  -23.7237   33.3774 H   0  0  0  0  0  0  0  0  0  0  0  0
   -8.1166  -24.8657   32.0860 H   0  0  0  0  0  0  0  0  0  0  0  0
   -9.8164  -21.0627   31.9093 H   0  0  0  0  0  0  0  0  0  0  0  0
  -11.4036  -23.3228   32.9731 H   0  0  0  0  0  0  0  0  0  0  0  0
  -10.8772  -22.2464   34.9650 H   0  0  0  0  0  0  0  0  0  0  0  0
  -11.9673  -20.4997   33.7308 H   0  0  0  0  0  0  0  0  0  0  0  0
  -13.0578  -21.8493   33.5377 H   0  0  0  0  0  0  0  0  0  0  0  0
  -13.6291  -20.4865   31.7150 H   0  0  0  0  0  0  0  0  0  0  0  0
  -11.9798  -19.9314   31.4814 H   0  0  0  0  0  0  0  0  0  0  0  0
  -12.9613  -22.6232   30.8353 H   0  0  0  0  0  0  0  0  0  0  0  0
  -10.6290  -21.3073   29.8294 H   0  0  0  0  0  0  0  0  0  0  0  0
  1  2  1  0
  2  3  1  0
  3  4  1  0
  4  5  2  0
  5  6  1  0
  6  7  1  0
  7  8  1  0
  7  9  1  0
  9 10  1  0
 10 11  1  0
 10 12  1  0
 12 13  1  0
 13 14  1  0
 13 15  1  0
 15 16  1  0
 16 17  1  0
 17 18  1  0
  6  2  2  0
 18  7  1  0
 18 12  1  0
  1 19  1  0
  1 20  1  0
  1 21  1  0
  4 22  1  0
  5 23  1  0
  8 24  1  0
  8 25  1  0
  8 26  1  0
  9 27  1  0
  9 28  1  0
 10 29  1  0
 11 30  1  0
 11 31  1  0
 11 32  1  0
 12 33  1  0
 13 34  1  0
 14 35  1  0
 15 36  1  0
 15 37  1  0
 16 38  1  0
 16 39  1  0
 17 40  1  0
 18 41  1  0
M  END
>  <Energy>  (520) 
94.199850373957375

>  <compound_id>  (520) 
3496

>  <target_id>  (520) 
1

>  <reference_id>  (520) 
119

>  <inspiration_ids>  (520) 
[119, 110]

>  <energy_score>  (520) 
-13.604797562712207

>  <distance_score>  (520) 
1.3977220418334717

>  <path>  (520) 
/opt/xchem-fragalysis-2/maxwin/BulkDock/SCRATCH/505734/C3496-P119/C3496-P119.minimised.mol

>  <scratch_subdir>  (520) 
/opt/xchem-fragalysis-2/maxwin/BulkDock/SCRATCH/505734/C3496-P119

>  <fragmenstein_runtime>  (520) 
2.890888214111328

>  <fragmenstein_outcome>  (520) 
too moved

>  <fragmenstein_mode>  (520) 
expansion

>  <fragmenstein_error>  (520) 


$$$$
C3496-P110
     RDKit          3D

 41 43  0  0  0  0  0  0  0  0999 V2000
   -9.5658  -26.2722   27.9880 C   0  0  0  0  0  0  0  0  0  0  0  0
  -10.4187  -25.1175   27.6974 C   0  0  0  0  0  0  0  0  0  0  0  0
  -11.2695  -25.0998   26.2202 S   0  0  0  0  0  0  0  0  0  0  0  0
  -11.8063  -23.5362   26.5232 C   0  0  0  0  0  0  0  0  0  0  0  0
  -11.4177  -23.0693   27.7618 C   0  0  0  0  0  0  0  0  0  0  0  0
  -10.7358  -24.0554   28.5371 C   0  0  0  0  0  0  0  0  0  0  0  0
  -10.8091  -24.1431   30.0802 C   0  0  0  0  0  0  0  0  0  0  0  0
  -11.7517  -25.2588   30.1798 C   0  0  0  0  0  0  0  0  0  0  0  0
   -9.7362  -24.7800   30.9841 C   0  0  0  0  0  0  0  0  0  0  0  0
  -10.0698  -24.2830   32.4108 C   0  0  0  0  0  0  0  0  0  0  0  0
  -10.7205  -25.3564   33.2782 C   0  0  0  0  0  0  0  0  0  0  0  0
  -10.8933  -22.9673   32.2807 C   0  0  0  0  0  0  0  0  0  0  0  0
  -11.9048  -22.5698   33.3700 C   0  0  0  0  0  0  0  0  0  0  0  0
  -11.8480  -21.1505   33.5558 O   0  0  0  0  0  0  0  0  0  0  0  0
  -13.3353  -22.7935   33.0784 C   0  0  0  0  0  0  0  0  0  0  0  0
  -13.6245  -22.0723   31.7915 C   0  0  0  0  0  0  0  0  0  0  0  0
  -12.6757  -22.2117   30.6635 N   0  0  0  0  0  0  0  0  0  0  0  0
  -11.3702  -22.8313   30.8454 C   0  0  0  0  0  0  0  0  0  0  0  0
   -8.5974  -25.8536   28.2171 H   0  0  0  0  0  0  0  0  0  0  0  0
   -9.8932  -26.8837   28.8239 H   0  0  0  0  0  0  0  0  0  0  0  0
   -9.4561  -26.9297   27.1257 H   0  0  0  0  0  0  0  0  0  0  0  0
  -12.3679  -23.0288   25.7540 H   0  0  0  0  0  0  0  0  0  0  0  0
  -11.6984  -22.0934   28.1287 H   0  0  0  0  0  0  0  0  0  0  0  0
  -11.9975  -25.4106   31.2192 H   0  0  0  0  0  0  0  0  0  0  0  0
  -12.5325  -24.9316   29.5078 H   0  0  0  0  0  0  0  0  0  0  0  0
  -11.4293  -26.2424   29.8277 H   0  0  0  0  0  0  0  0  0  0  0  0
   -9.7096  -25.8798   30.9690 H   0  0  0  0  0  0  0  0  0  0  0  0
   -8.7266  -24.5888   30.6865 H   0  0  0  0  0  0  0  0  0  0  0  0
   -9.1130  -24.0445   32.8831 H   0  0  0  0  0  0  0  0  0  0  0  0
  -10.6642  -26.3485   32.8286 H   0  0  0  0  0  0  0  0  0  0  0  0
  -11.7724  -25.1561   33.4681 H   0  0  0  0  0  0  0  0  0  0  0  0
  -10.2277  -25.4152   34.2500 H   0  0  0  0  0  0  0  0  0  0  0  0
  -10.1327  -22.1975   32.3057 H   0  0  0  0  0  0  0  0  0  0  0  0
  -11.7314  -23.0610   34.3198 H   0  0  0  0  0  0  0  0  0  0  0  0
  -12.1558  -20.9620   34.4583 H   0  0  0  0  0  0  0  0  0  0  0  0
  -13.9774  -22.3653   33.8592 H   0  0  0  0  0  0  0  0  0  0  0  0
  -13.5122  -23.8491   33.1198 H   0  0  0  0  0  0  0  0  0  0  0  0
  -14.6578  -22.2225   31.4711 H   0  0  0  0  0  0  0  0  0  0  0  0
  -13.6929  -21.0470   32.1178 H   0  0  0  0  0  0  0  0  0  0  0  0
  -13.0976  -22.5097   29.8016 H   0  0  0  0  0  0  0  0  0  0  0  0
  -10.7980  -21.9982   30.4229 H   0  0  0  0  0  0  0  0  0  0  0  0
  1  2  1  0
  2  3  1  0
  3  4  1  0
  4  5  2  0
  5  6  1  0
  6  7  1  0
  7  8  1  0
  7  9  1  0
  9 10  1  0
 10 11  1  0
 10 12  1  0
 12 13  1  0
 13 14  1  0
 13 15  1  0
 15 16  1  0
 16 17  1  0
 17 18  1  0
  6  2  2  0
 18  7  1  0
 18 12  1  0
  1 19  1  0
  1 20  1  0
  1 21  1  0
  4 22  1  0
  5 23  1  0
  8 24  1  0
  8 25  1  0
  8 26  1  0
  9 27  1  0
  9 28  1  0
 10 29  1  0
 11 30  1  0
 11 31  1  0
 11 32  1  0
 12 33  1  0
 13 34  1  0
 14 35  1  0
 15 36  1  0
 15 37  1  0
 16 38  1  0
 16 39  1  0
 17 40  1  0
 18 41  1  0
M  END
>  <Energy>  (521) 
142.33056896163546

>  <compound_id>  (521) 
3496

>  <target_id>  (521) 
1

>  <reference_id>  (521) 
110

>  <inspiration_ids>  (521) 
[119, 110]

>  <energy_score>  (521) 
34.52592102496638

>  <distance_score>  (521) 
1.422257445347942

>  <path>  (521) 
/opt/xchem-fragalysis-2/maxwin/BulkDock/SCRATCH/505734/C3496-P110/C3496-P110.minimised.mol

>  <scratch_subdir>  (521) 
/opt/xchem-fragalysis-2/maxwin/BulkDock/SCRATCH/505734/C3496-P110

>  <fragmenstein_runtime>  (521) 
2.9349205493927

>  <fragmenstein_outcome>  (521) 
too moved

>  <fragmenstein_mode>  (521) 
expansion

>  <fragmenstein_error>  (521) 


$$$$
C3498-P119
     RDKit          3D

 28 29  0  0  0  0  0  0  0  0999 V2000
  -17.7079  -21.1255   35.0607 O   0  0  0  0  0  0  0  0  0  0  0  0
  -16.5035  -21.1701   34.2933 C   0  0  0  0  0  0  0  0  0  0  0  0
  -15.8668  -19.7846   34.2297 C   0  0  0  0  0  0  0  0  0  0  0  0
  -14.5195  -19.8157   33.4871 C   0  0  0  0  0  0  0  0  0  0  0  0
  -13.6098  -20.7938   34.0642 N   0  0  0  0  0  0  0  0  0  0  0  0
  -12.1907  -20.7589   33.6476 C   0  0  0  0  0  0  0  0  0  0  0  0
  -11.7704  -21.4684   32.3622 C   0  0  0  0  0  0  0  0  0  0  0  0
  -12.3960  -21.3259   31.1389 C   0  0  0  0  0  0  0  0  0  0  0  0
  -11.6164  -22.1119   29.8294 S   0  0  0  0  0  0  0  0  0  0  0  0
  -10.4837  -22.8136   30.8824 C   0  0  0  0  0  0  0  0  0  0  0  0
  -10.6242  -22.3133   32.1556 C   0  0  0  0  0  0  0  0  0  0  0  0
   -9.1765  -22.7780   33.5167 I   0  0  0  0  0  0  0  0  0  0  0  0
  -14.1932  -22.1176   34.1832 C   0  0  0  0  0  0  0  0  0  0  0  0
  -15.5263  -22.1480   34.9209 C   0  0  0  0  0  0  0  0  0  0  0  0
  -17.9872  -22.0442   35.2092 H   0  0  0  0  0  0  0  0  0  0  0  0
  -16.7711  -21.4995   33.2822 H   0  0  0  0  0  0  0  0  0  0  0  0
  -15.7278  -19.3926   35.2458 H   0  0  0  0  0  0  0  0  0  0  0  0
  -16.5501  -19.0851   33.7329 H   0  0  0  0  0  0  0  0  0  0  0  0
  -14.7083  -20.0228   32.4295 H   0  0  0  0  0  0  0  0  0  0  0  0
  -14.0796  -18.8140   33.5496 H   0  0  0  0  0  0  0  0  0  0  0  0
  -11.8653  -19.7128   33.5732 H   0  0  0  0  0  0  0  0  0  0  0  0
  -11.6147  -21.1748   34.4787 H   0  0  0  0  0  0  0  0  0  0  0  0
  -13.3117  -20.7932   30.9620 H   0  0  0  0  0  0  0  0  0  0  0  0
   -9.7271  -23.4849   30.5003 H   0  0  0  0  0  0  0  0  0  0  0  0
  -13.5071  -22.7722   34.7297 H   0  0  0  0  0  0  0  0  0  0  0  0
  -14.3764  -22.5074   33.1816 H   0  0  0  0  0  0  0  0  0  0  0  0
  -15.9437  -23.1620   34.8998 H   0  0  0  0  0  0  0  0  0  0  0  0
  -15.3872  -21.9072   35.9809 H   0  0  0  0  0  0  0  0  0  0  0  0
  1  2  1  0
  2  3  1  0
  3  4  1  0
  4  5  1  0
  5  6  1  0
  6  7  1  0
  7  8  2  0
  8  9  1  0
  9 10  1  0
 10 11  2  0
 11 12  1  0
  5 13  1  0
 13 14  1  0
 14  2  1  0
 11  7  1  0
  1 15  1  0
  2 16  1  0
  3 17  1  0
  3 18  1  0
  4 19  1  0
  4 20  1  0
  6 21  1  0
  6 22  1  0
  8 23  1  0
 10 24  1  0
 13 25  1  0
 13 26  1  0
 14 27  1  0
 14 28  1  0
M  END
>  <Energy>  (522) 
12.39754191145553

>  <compound_id>  (522) 
3498

>  <target_id>  (522) 
1

>  <reference_id>  (522) 
119

>  <inspiration_ids>  (522) 
[119, 161]

>  <energy_score>  (522) 
-30.841535319065656

>  <distance_score>  (522) 
1.476877885138194

>  <path>  (522) 
/opt/xchem-fragalysis-2/maxwin/BulkDock/SCRATCH/505734/C3498-P119/C3498-P119.minimised.mol

>  <scratch_subdir>  (522) 
/opt/xchem-fragalysis-2/maxwin/BulkDock/SCRATCH/505734/C3498-P119

>  <fragmenstein_runtime>  (522) 
3.774825096130371

>  <fragmenstein_outcome>  (522) 
too moved

>  <fragmenstein_mode>  (522) 
expansion

>  <fragmenstein_error>  (522) 


$$$$
C3498-P161
     RDKit          3D

 28 29  0  0  0  0  0  0  0  0999 V2000
  -18.9071  -21.9867   35.3854 O   0  0  0  0  0  0  0  0  0  0  0  0
  -17.5744  -21.6212   35.0506 C   0  0  0  0  0  0  0  0  0  0  0  0
  -16.9101  -21.0070   36.2709 C   0  0  0  0  0  0  0  0  0  0  0  0
  -15.4542  -20.6397   35.9985 C   0  0  0  0  0  0  0  0  0  0  0  0
  -14.7641  -21.5311   35.0578 N   0  0  0  0  0  0  0  0  0  0  0  0
  -14.6463  -20.9018   33.7481 C   0  0  0  0  0  0  0  0  0  0  0  0
  -13.6722  -21.6403   32.8866 C   0  0  0  0  0  0  0  0  0  0  0  0
  -14.0276  -22.3592   31.7524 C   0  0  0  0  0  0  0  0  0  0  0  0
  -12.6906  -22.9913   30.9120 S   0  0  0  0  0  0  0  0  0  0  0  0
  -11.6460  -22.4375   32.1330 C   0  0  0  0  0  0  0  0  0  0  0  0
  -12.2679  -21.6632   33.0686 C   0  0  0  0  0  0  0  0  0  0  0  0
  -11.1954  -20.7989   34.6499 I   0  0  0  0  0  0  0  0  0  0  0  0
  -15.3635  -22.8625   35.0089 C   0  0  0  0  0  0  0  0  0  0  0  0
  -16.8199  -22.8549   34.5522 C   0  0  0  0  0  0  0  0  0  0  0  0
  -19.3440  -22.2616   34.5610 H   0  0  0  0  0  0  0  0  0  0  0  0
  -17.6379  -20.8671   34.2575 H   0  0  0  0  0  0  0  0  0  0  0  0
  -16.9656  -21.7169   37.1077 H   0  0  0  0  0  0  0  0  0  0  0  0
  -17.4684  -20.1237   36.6045 H   0  0  0  0  0  0  0  0  0  0  0  0
  -15.3998  -19.5897   35.6829 H   0  0  0  0  0  0  0  0  0  0  0  0
  -14.9127  -20.6736   36.9524 H   0  0  0  0  0  0  0  0  0  0  0  0
  -15.6076  -20.7975   33.2325 H   0  0  0  0  0  0  0  0  0  0  0  0
  -14.2728  -19.8804   33.8834 H   0  0  0  0  0  0  0  0  0  0  0  0
  -15.0247  -22.5199   31.3632 H   0  0  0  0  0  0  0  0  0  0  0  0
  -10.6165  -22.7230   32.2085 H   0  0  0  0  0  0  0  0  0  0  0  0
  -15.3054  -23.3030   36.0135 H   0  0  0  0  0  0  0  0  0  0  0  0
  -14.7859  -23.5463   34.3779 H   0  0  0  0  0  0  0  0  0  0  0  0
  -16.8750  -22.8804   33.4566 H   0  0  0  0  0  0  0  0  0  0  0  0
  -17.3076  -23.7764   34.8940 H   0  0  0  0  0  0  0  0  0  0  0  0
  1  2  1  0
  2  3  1  0
  3  4  1  0
  4  5  1  0
  5  6  1  0
  6  7  1  0
  7  8  2  0
  8  9  1  0
  9 10  1  0
 10 11  2  0
 11 12  1  0
  5 13  1  0
 13 14  1  0
 14  2  1  0
 11  7  1  0
  1 15  1  0
  2 16  1  0
  3 17  1  0
  3 18  1  0
  4 19  1  0
  4 20  1  0
  6 21  1  0
  6 22  1  0
  8 23  1  0
 10 24  1  0
 13 25  1  0
 13 26  1  0
 14 27  1  0
 14 28  1  0
M  END
>  <Energy>  (523) 
17.091951097650643

>  <compound_id>  (523) 
3498

>  <target_id>  (523) 
1

>  <reference_id>  (523) 
161

>  <inspiration_ids>  (523) 
[119, 161]

>  <energy_score>  (523) 
-26.147126132872017

>  <distance_score>  (523) 
2.071271451041548

>  <path>  (523) 
/opt/xchem-fragalysis-2/maxwin/BulkDock/SCRATCH/505734/C3498-P161/C3498-P161.minimised.mol

>  <scratch_subdir>  (523) 
/opt/xchem-fragalysis-2/maxwin/BulkDock/SCRATCH/505734/C3498-P161

>  <fragmenstein_runtime>  (523) 
3.822439670562744

>  <fragmenstein_outcome>  (523) 
too moved

>  <fragmenstein_mode>  (523) 
expansion

>  <fragmenstein_error>  (523) 


$$$$
C3499-P120
     RDKit          3D

 44 45  0  0  0  0  0  0  0  0999 V2000
   18.3521   -3.4469   14.1575 C   0  0  0  0  0  0  0  0  0  0  0  0
   18.0551   -3.2201   15.6155 N   0  0  0  0  0  0  0  0  0  0  0  0
   19.3417   -3.9706   15.7324 C   0  0  0  0  0  0  0  0  0  0  0  0
   16.6300   -3.6357   15.9591 C   0  0  0  0  0  0  0  0  0  0  0  0
   16.2054   -4.6728   16.3213 O   0  0  0  0  0  0  0  0  0  0  0  0
   15.7601   -2.3782   15.7825 C   0  0  0  0  0  0  0  0  0  0  0  0
   14.7313   -2.3161   16.7703 O   0  0  0  0  0  0  0  0  0  0  0  0
   13.5081   -2.1971   16.2164 C   0  0  0  0  0  0  0  0  0  0  0  0
   12.7015   -3.2922   16.0512 C   0  0  0  0  0  0  0  0  0  0  0  0
   11.2888   -2.8767   15.2045 S   0  0  0  0  0  0  0  0  0  0  0  0
   11.6536   -1.2134   15.2618 C   0  0  0  0  0  0  0  0  0  0  0  0
   10.7769   -0.3171   14.7434 N   0  0  0  0  0  0  0  0  0  0  0  0
   12.8882   -0.9638   15.8388 C   0  0  0  0  0  0  0  0  0  0  0  0
   13.4967    0.3820   16.1031 C   0  0  0  0  0  0  0  0  0  0  0  0
   13.5463    1.2177   14.8875 N   0  0  0  0  0  0  0  0  0  0  0  0
   13.8876    2.5965   15.2527 C   0  0  0  0  0  0  0  0  0  0  0  0
   13.6875    3.5260   14.0558 C   0  0  0  0  0  0  0  0  0  0  0  0
   14.0472    2.8599   12.7272 C   0  0  0  0  0  0  0  0  0  0  0  0
   14.6005    3.8230   11.8363 O   0  0  0  0  0  0  0  0  0  0  0  0
   15.0482    1.7348   12.9320 C   0  0  0  0  0  0  0  0  0  0  0  0
   14.5018    0.6797   13.8986 C   0  0  0  0  0  0  0  0  0  0  0  0
   19.2409   -2.9234   13.7723 H   0  0  0  0  0  0  0  0  0  0  0  0
   18.2596   -4.4932   13.8263 H   0  0  0  0  0  0  0  0  0  0  0  0
   17.5263   -2.9504   13.6260 H   0  0  0  0  0  0  0  0  0  0  0  0
   19.2966   -5.0311   15.4391 H   0  0  0  0  0  0  0  0  0  0  0  0
   20.2368   -3.4273   15.3946 H   0  0  0  0  0  0  0  0  0  0  0  0
   19.4828   -4.0393   16.8216 H   0  0  0  0  0  0  0  0  0  0  0  0
   16.3779   -1.4820   15.9048 H   0  0  0  0  0  0  0  0  0  0  0  0
   15.3721   -2.3913   14.7550 H   0  0  0  0  0  0  0  0  0  0  0  0
   12.9078   -4.3176   16.3243 H   0  0  0  0  0  0  0  0  0  0  0  0
   11.2195    0.5356   14.4012 H   0  0  0  0  0  0  0  0  0  0  0  0
   10.1558   -0.7302   14.0327 H   0  0  0  0  0  0  0  0  0  0  0  0
   12.8627    0.8700   16.8538 H   0  0  0  0  0  0  0  0  0  0  0  0
   14.4926    0.2930   16.5547 H   0  0  0  0  0  0  0  0  0  0  0  0
   14.9225    2.6595   15.6150 H   0  0  0  0  0  0  0  0  0  0  0  0
   13.2458    2.9589   16.0656 H   0  0  0  0  0  0  0  0  0  0  0  0
   12.6388    3.8468   14.0060 H   0  0  0  0  0  0  0  0  0  0  0  0
   14.2728    4.4413   14.2079 H   0  0  0  0  0  0  0  0  0  0  0  0
   13.1426    2.4576   12.2545 H   0  0  0  0  0  0  0  0  0  0  0  0
   13.9563    4.5456   11.7439 H   0  0  0  0  0  0  0  0  0  0  0  0
   15.3086    1.2727   11.9722 H   0  0  0  0  0  0  0  0  0  0  0  0
   15.9864    2.1515   13.3227 H   0  0  0  0  0  0  0  0  0  0  0  0
   15.3641    0.2086   14.3851 H   0  0  0  0  0  0  0  0  0  0  0  0
   13.9944   -0.0997   13.3175 H   0  0  0  0  0  0  0  0  0  0  0  0
  1  2  1  0
  2  3  1  0
  2  4  1  0
  4  5  2  0
  4  6  1  0
  6  7  1  0
  7  8  1  0
  8  9  2  0
  9 10  1  0
 10 11  1  0
 11 12  1  0
 11 13  2  0
 13 14  1  0
 14 15  1  0
 15 16  1  0
 16 17  1  0
 17 18  1  0
 18 19  1  0
 18 20  1  0
 20 21  1  0
 13  8  1  0
 21 15  1  0
  1 22  1  0
  1 23  1  0
  1 24  1  0
  3 25  1  0
  3 26  1  0
  3 27  1  0
  6 28  1  0
  6 29  1  0
  9 30  1  0
 12 31  1  0
 12 32  1  0
 14 33  1  0
 14 34  1  0
 16 35  1  0
 16 36  1  0
 17 37  1  0
 17 38  1  0
 18 39  1  0
 19 40  1  0
 20 41  1  0
 20 42  1  0
 21 43  1  0
 21 44  1  0
M  END
>  <Energy>  (524) 
98.729258718217139

>  <compound_id>  (524) 
3499

>  <target_id>  (524) 
1

>  <reference_id>  (524) 
120

>  <inspiration_ids>  (524) 
[120, 4]

>  <energy_score>  (524) 
21.665334047169466

>  <distance_score>  (524) 
1.0476726457132504

>  <path>  (524) 
/opt/xchem-fragalysis-2/maxwin/BulkDock/SCRATCH/505734/C3499-P120/C3499-P120.minimised.mol

>  <scratch_subdir>  (524) 
/opt/xchem-fragalysis-2/maxwin/BulkDock/SCRATCH/505734/C3499-P120

>  <fragmenstein_runtime>  (524) 
1.995039701461792

>  <fragmenstein_outcome>  (524) 
too moved

>  <fragmenstein_mode>  (524) 
expansion

>  <fragmenstein_error>  (524) 


$$$$
C3499-P4
     RDKit          3D

 44 45  0  0  0  0  0  0  0  0999 V2000
   18.6262   -4.4812   14.8680 C   0  0  0  0  0  0  0  0  0  0  0  0
   18.3492   -3.9941   16.2652 N   0  0  0  0  0  0  0  0  0  0  0  0
   19.5233   -4.8785   16.5330 C   0  0  0  0  0  0  0  0  0  0  0  0
   16.8794   -4.1620   16.6261 C   0  0  0  0  0  0  0  0  0  0  0  0
   16.3176   -5.0655   17.1294 O   0  0  0  0  0  0  0  0  0  0  0  0
   16.1823   -2.8507   16.2358 C   0  0  0  0  0  0  0  0  0  0  0  0
   14.9840   -2.6483   16.9902 O   0  0  0  0  0  0  0  0  0  0  0  0
   13.8966   -2.5025   16.2068 C   0  0  0  0  0  0  0  0  0  0  0  0
   12.8648   -3.4040   16.2722 C   0  0  0  0  0  0  0  0  0  0  0  0
   11.6507   -3.0172   15.1465 S   0  0  0  0  0  0  0  0  0  0  0  0
   12.4523   -1.5907   14.6721 C   0  0  0  0  0  0  0  0  0  0  0  0
   11.8686   -0.7937   13.7615 N   0  0  0  0  0  0  0  0  0  0  0  0
   13.6310   -1.3714   15.3641 C   0  0  0  0  0  0  0  0  0  0  0  0
   14.5135   -0.1471   15.4132 C   0  0  0  0  0  0  0  0  0  0  0  0
   14.1514    0.9041   14.4499 N   0  0  0  0  0  0  0  0  0  0  0  0
   14.4859    2.2276   14.9828 C   0  0  0  0  0  0  0  0  0  0  0  0
   13.9201    3.3229   14.0796 C   0  0  0  0  0  0  0  0  0  0  0  0
   14.0395    2.9751   12.5962 C   0  0  0  0  0  0  0  0  0  0  0  0
   14.3697    4.1414   11.8502 O   0  0  0  0  0  0  0  0  0  0  0  0
   15.1082    1.9233   12.3571 C   0  0  0  0  0  0  0  0  0  0  0  0
   14.8173    0.6523   13.1536 C   0  0  0  0  0  0  0  0  0  0  0  0
   19.5950   -4.1818   14.4381 H   0  0  0  0  0  0  0  0  0  0  0  0
   18.3546   -5.5346   14.6943 H   0  0  0  0  0  0  0  0  0  0  0  0
   17.9078   -3.9349   14.2401 H   0  0  0  0  0  0  0  0  0  0  0  0
   19.3481   -5.9558   16.3853 H   0  0  0  0  0  0  0  0  0  0  0  0
   20.4866   -4.5030   16.1572 H   0  0  0  0  0  0  0  0  0  0  0  0
   19.6329   -4.8106   17.6258 H   0  0  0  0  0  0  0  0  0  0  0  0
   16.8526   -2.0143   16.4621 H   0  0  0  0  0  0  0  0  0  0  0  0
   16.0063   -2.8811   15.1527 H   0  0  0  0  0  0  0  0  0  0  0  0
   12.7946   -4.2949   16.8818 H   0  0  0  0  0  0  0  0  0  0  0  0
   12.1591    0.1815   13.7591 H   0  0  0  0  0  0  0  0  0  0  0  0
   10.8965   -1.0015   13.5123 H   0  0  0  0  0  0  0  0  0  0  0  0
   14.4369    0.2443   16.4356 H   0  0  0  0  0  0  0  0  0  0  0  0
   15.5681   -0.4220   15.3029 H   0  0  0  0  0  0  0  0  0  0  0  0
   15.5727    2.3429   15.0889 H   0  0  0  0  0  0  0  0  0  0  0  0
   14.0541    2.3704   15.9808 H   0  0  0  0  0  0  0  0  0  0  0  0
   12.8592    3.4826   14.3122 H   0  0  0  0  0  0  0  0  0  0  0  0
   14.4228    4.2714   14.3053 H   0  0  0  0  0  0  0  0  0  0  0  0
   13.0768    2.6060   12.2212 H   0  0  0  0  0  0  0  0  0  0  0  0
   13.6899    4.8130   12.0289 H   0  0  0  0  0  0  0  0  0  0  0  0
   15.1830    1.6912   11.2877 H   0  0  0  0  0  0  0  0  0  0  0  0
   16.0895    2.3294   12.6379 H   0  0  0  0  0  0  0  0  0  0  0  0
   15.7731    0.1255   13.2715 H   0  0  0  0  0  0  0  0  0  0  0  0
   14.1785   -0.0027   12.5507 H   0  0  0  0  0  0  0  0  0  0  0  0
  1  2  1  0
  2  3  1  0
  2  4  1  0
  4  5  2  0
  4  6  1  0
  6  7  1  0
  7  8  1  0
  8  9  2  0
  9 10  1  0
 10 11  1  0
 11 12  1  0
 11 13  2  0
 13 14  1  0
 14 15  1  0
 15 16  1  0
 16 17  1  0
 17 18  1  0
 18 19  1  0
 18 20  1  0
 20 21  1  0
 13  8  1  0
 21 15  1  0
  1 22  1  0
  1 23  1  0
  1 24  1  0
  3 25  1  0
  3 26  1  0
  3 27  1  0
  6 28  1  0
  6 29  1  0
  9 30  1  0
 12 31  1  0
 12 32  1  0
 14 33  1  0
 14 34  1  0
 16 35  1  0
 16 36  1  0
 17 37  1  0
 17 38  1  0
 18 39  1  0
 19 40  1  0
 20 41  1  0
 20 42  1  0
 21 43  1  0
 21 44  1  0
M  END
>  <Energy>  (525) 
104.54204470619825

>  <compound_id>  (525) 
3499

>  <target_id>  (525) 
1

>  <reference_id>  (525) 
4

>  <inspiration_ids>  (525) 
[120, 4]

>  <energy_score>  (525) 
27.478120035156905

>  <distance_score>  (525) 
1.334664861521456

>  <path>  (525) 
/opt/xchem-fragalysis-2/maxwin/BulkDock/SCRATCH/505734/C3499-P4/C3499-P4.minimised.mol

>  <scratch_subdir>  (525) 
/opt/xchem-fragalysis-2/maxwin/BulkDock/SCRATCH/505734/C3499-P4

>  <fragmenstein_runtime>  (525) 
1.853281021118164

>  <fragmenstein_outcome>  (525) 
too moved

>  <fragmenstein_mode>  (525) 
expansion

>  <fragmenstein_error>  (525) 


$$$$
C3500-P120
     RDKit          3D

 47 49  0  0  0  0  0  0  0  0999 V2000
   15.6216    0.1535   13.2654 C   0  0  0  0  0  0  0  0  0  0  0  0
   15.3135    1.3318   14.1966 C   0  0  0  0  0  0  0  0  0  0  0  0
   15.3861    2.6437   13.4037 C   0  0  0  0  0  0  0  0  0  0  0  0
   14.1004    2.9000   12.6377 C   0  0  0  0  0  0  0  0  0  0  0  0
   14.2025    4.1460   11.9507 O   0  0  0  0  0  0  0  0  0  0  0  0
   12.8838    2.9000   13.5606 C   0  0  0  0  0  0  0  0  0  0  0  0
   13.1822    2.3206   14.9445 C   0  0  0  0  0  0  0  0  0  0  0  0
   14.0081    1.1200   14.8590 N   0  0  0  0  0  0  0  0  0  0  0  0
   14.1206    0.3210   16.1032 C   0  0  0  0  0  0  0  0  0  0  0  0
   13.9741    1.1577   17.3917 C   0  0  0  0  0  0  0  0  0  0  0  0
   13.1454   -0.8997   16.1440 C   0  0  0  0  0  0  0  0  0  0  0  0
   12.3810   -1.1568   14.8399 C   0  0  0  0  0  0  0  0  0  0  0  0
   11.6015   -2.7728   15.0818 S   0  0  0  0  0  0  0  0  0  0  0  0
   12.7501   -3.3295   16.3615 C   0  0  0  0  0  0  0  0  0  0  0  0
   13.8416   -2.2474   16.4925 C   0  0  0  0  0  0  0  0  0  0  0  0
   14.4899   -2.3057   17.8733 C   0  0  0  0  0  0  0  0  0  0  0  0
   15.5081   -3.4188   17.7516 C   0  0  0  0  0  0  0  0  0  0  0  0
   15.9290   -3.4009   16.2942 C   0  0  0  0  0  0  0  0  0  0  0  0
   15.0092   -2.4919   15.6291 N   0  0  0  0  0  0  0  0  0  0  0  0
   14.8255   -0.0044   12.5298 H   0  0  0  0  0  0  0  0  0  0  0  0
   16.5544    0.3243   12.7167 H   0  0  0  0  0  0  0  0  0  0  0  0
   15.7512   -0.7737   13.8248 H   0  0  0  0  0  0  0  0  0  0  0  0
   16.1163    1.3958   14.9437 H   0  0  0  0  0  0  0  0  0  0  0  0
   15.5712    3.4812   14.0910 H   0  0  0  0  0  0  0  0  0  0  0  0
   16.2420    2.6497   12.7170 H   0  0  0  0  0  0  0  0  0  0  0  0
   13.9687    2.1334   11.8658 H   0  0  0  0  0  0  0  0  0  0  0  0
   14.3351    4.8428   12.6155 H   0  0  0  0  0  0  0  0  0  0  0  0
   12.0938    2.3026   13.0859 H   0  0  0  0  0  0  0  0  0  0  0  0
   12.4683    3.9088   13.6726 H   0  0  0  0  0  0  0  0  0  0  0  0
   13.6660    3.0906   15.5587 H   0  0  0  0  0  0  0  0  0  0  0  0
   12.2169    2.0903   15.4113 H   0  0  0  0  0  0  0  0  0  0  0  0
   15.1419   -0.0716   16.1571 H   0  0  0  0  0  0  0  0  0  0  0  0
   14.7265    1.9539   17.4204 H   0  0  0  0  0  0  0  0  0  0  0  0
   14.1203    0.5491   18.2878 H   0  0  0  0  0  0  0  0  0  0  0  0
   12.9872    1.6199   17.4795 H   0  0  0  0  0  0  0  0  0  0  0  0
   12.3922   -0.6967   16.9154 H   0  0  0  0  0  0  0  0  0  0  0  0
   11.6136   -0.3995   14.6555 H   0  0  0  0  0  0  0  0  0  0  0  0
   13.0344   -1.2209   13.9654 H   0  0  0  0  0  0  0  0  0  0  0  0
   13.1511   -4.3155   16.1233 H   0  0  0  0  0  0  0  0  0  0  0  0
   12.1944   -3.4354   17.2921 H   0  0  0  0  0  0  0  0  0  0  0  0
   15.0253   -1.3849   18.1206 H   0  0  0  0  0  0  0  0  0  0  0  0
   13.7935   -2.5149   18.6873 H   0  0  0  0  0  0  0  0  0  0  0  0
   16.3571   -3.2592   18.4243 H   0  0  0  0  0  0  0  0  0  0  0  0
   15.0509   -4.3681   18.0257 H   0  0  0  0  0  0  0  0  0  0  0  0
   16.9527   -3.0288   16.1859 H   0  0  0  0  0  0  0  0  0  0  0  0
   15.8931   -4.3981   15.8516 H   0  0  0  0  0  0  0  0  0  0  0  0
   14.7534   -2.8066   14.6960 H   0  0  0  0  0  0  0  0  0  0  0  0
  1  2  1  0
  2  3  1  0
  3  4  1  0
  4  5  1  0
  4  6  1  0
  6  7  1  0
  7  8  1  0
  8  9  1  0
  9 10  1  0
  9 11  1  0
 11 12  1  0
 12 13  1  0
 13 14  1  0
 14 15  1  0
 15 16  1  0
 16 17  1  0
 17 18  1  0
 18 19  1  0
  8  2  1  0
 15 11  1  0
 19 15  1  0
  1 20  1  0
  1 21  1  0
  1 22  1  0
  2 23  1  0
  3 24  1  0
  3 25  1  0
  4 26  1  0
  5 27  1  0
  6 28  1  0
  6 29  1  0
  7 30  1  0
  7 31  1  0
  9 32  1  0
 10 33  1  0
 10 34  1  0
 10 35  1  0
 11 36  1  0
 12 37  1  0
 12 38  1  0
 14 39  1  0
 14 40  1  0
 16 41  1  0
 16 42  1  0
 17 43  1  0
 17 44  1  0
 18 45  1  0
 18 46  1  0
 19 47  1  0
M  END
>  <Energy>  (526) 
56.902318778282847

>  <compound_id>  (526) 
3500

>  <target_id>  (526) 
1

>  <reference_id>  (526) 
120

>  <inspiration_ids>  (526) 
[120, 6]

>  <energy_score>  (526) 
-50.01687393531023

>  <distance_score>  (526) 
1.2015282669791059

>  <path>  (526) 
/opt/xchem-fragalysis-2/maxwin/BulkDock/SCRATCH/505734/C3500-P120/C3500-P120.minimised.mol

>  <scratch_subdir>  (526) 
/opt/xchem-fragalysis-2/maxwin/BulkDock/SCRATCH/505734/C3500-P120

>  <fragmenstein_runtime>  (526) 
1.9875714778900146

>  <fragmenstein_outcome>  (526) 
too moved

>  <fragmenstein_mode>  (526) 
expansion

>  <fragmenstein_error>  (526) 


$$$$
C3500-P6
     RDKit          3D

 47 49  0  0  0  0  0  0  0  0999 V2000
   15.8574    0.2107   13.5407 C   0  0  0  0  0  0  0  0  0  0  0  0
   15.3562    1.4008   14.3682 C   0  0  0  0  0  0  0  0  0  0  0  0
   15.3944    2.6711   13.5033 C   0  0  0  0  0  0  0  0  0  0  0  0
   14.1333    2.8051   12.6705 C   0  0  0  0  0  0  0  0  0  0  0  0
   14.2201    3.9996   11.8967 O   0  0  0  0  0  0  0  0  0  0  0  0
   12.8916    2.8435   13.5577 C   0  0  0  0  0  0  0  0  0  0  0  0
   13.1430    2.2845   14.9588 C   0  0  0  0  0  0  0  0  0  0  0  0
   14.0108    1.1096   14.9156 N   0  0  0  0  0  0  0  0  0  0  0  0
   14.0618    0.3069   16.1633 C   0  0  0  0  0  0  0  0  0  0  0  0
   13.8840    1.1542   17.4400 C   0  0  0  0  0  0  0  0  0  0  0  0
   13.0639   -0.9032   16.1620 C   0  0  0  0  0  0  0  0  0  0  0  0
   12.3160   -1.1101   14.8373 C   0  0  0  0  0  0  0  0  0  0  0  0
   11.5333   -2.7357   14.9913 S   0  0  0  0  0  0  0  0  0  0  0  0
   12.6358   -3.3389   16.2842 C   0  0  0  0  0  0  0  0  0  0  0  0
   13.7363   -2.2747   16.4720 C   0  0  0  0  0  0  0  0  0  0  0  0
   14.3366   -2.4085   17.8726 C   0  0  0  0  0  0  0  0  0  0  0  0
   15.6037   -3.2317   17.7020 C   0  0  0  0  0  0  0  0  0  0  0  0
   15.7515   -3.4901   16.2171 C   0  0  0  0  0  0  0  0  0  0  0  0
   14.9115   -2.4786   15.6104 N   0  0  0  0  0  0  0  0  0  0  0  0
   15.1363   -0.0814   12.7697 H   0  0  0  0  0  0  0  0  0  0  0  0
   16.8020    0.4520   13.0406 H   0  0  0  0  0  0  0  0  0  0  0  0
   16.0538   -0.6580   14.1703 H   0  0  0  0  0  0  0  0  0  0  0  0
   16.0692    1.5731   15.1860 H   0  0  0  0  0  0  0  0  0  0  0  0
   15.4945    3.5560   14.1477 H   0  0  0  0  0  0  0  0  0  0  0  0
   16.2809    2.6927   12.8571 H   0  0  0  0  0  0  0  0  0  0  0  0
   14.0638    1.9684   11.9655 H   0  0  0  0  0  0  0  0  0  0  0  0
   13.4230    4.0353   11.3405 H   0  0  0  0  0  0  0  0  0  0  0  0
   12.1025    2.2573   13.0682 H   0  0  0  0  0  0  0  0  0  0  0  0
   12.4971    3.8636   13.6419 H   0  0  0  0  0  0  0  0  0  0  0  0
   13.5750    3.0721   15.5893 H   0  0  0  0  0  0  0  0  0  0  0  0
   12.1649    2.0297   15.3845 H   0  0  0  0  0  0  0  0  0  0  0  0
   15.0738   -0.1018   16.2599 H   0  0  0  0  0  0  0  0  0  0  0  0
   14.6418    1.9447   17.4854 H   0  0  0  0  0  0  0  0  0  0  0  0
   13.9989    0.5539   18.3454 H   0  0  0  0  0  0  0  0  0  0  0  0
   12.8999    1.6268   17.4930 H   0  0  0  0  0  0  0  0  0  0  0  0
   12.3042   -0.7119   16.9300 H   0  0  0  0  0  0  0  0  0  0  0  0
   11.5502   -0.3465   14.6744 H   0  0  0  0  0  0  0  0  0  0  0  0
   12.9812   -1.1352   13.9691 H   0  0  0  0  0  0  0  0  0  0  0  0
   13.0290   -4.3283   16.0467 H   0  0  0  0  0  0  0  0  0  0  0  0
   12.0431   -3.4553   17.1903 H   0  0  0  0  0  0  0  0  0  0  0  0
   14.6143   -1.4467   18.3073 H   0  0  0  0  0  0  0  0  0  0  0  0
   13.6641   -2.8949   18.5871 H   0  0  0  0  0  0  0  0  0  0  0  0
   16.4605   -2.6518   18.0678 H   0  0  0  0  0  0  0  0  0  0  0  0
   15.5751   -4.1493   18.2924 H   0  0  0  0  0  0  0  0  0  0  0  0
   16.7911   -3.3976   15.8896 H   0  0  0  0  0  0  0  0  0  0  0  0
   15.4034   -4.4866   15.9412 H   0  0  0  0  0  0  0  0  0  0  0  0
   14.6579   -2.7138   14.6527 H   0  0  0  0  0  0  0  0  0  0  0  0
  1  2  1  0
  2  3  1  0
  3  4  1  0
  4  5  1  0
  4  6  1  0
  6  7  1  0
  7  8  1  0
  8  9  1  0
  9 10  1  0
  9 11  1  0
 11 12  1  0
 12 13  1  0
 13 14  1  0
 14 15  1  0
 15 16  1  0
 16 17  1  0
 17 18  1  0
 18 19  1  0
  8  2  1  0
 15 11  1  0
 19 15  1  0
  1 20  1  0
  1 21  1  0
  1 22  1  0
  2 23  1  0
  3 24  1  0
  3 25  1  0
  4 26  1  0
  5 27  1  0
  6 28  1  0
  6 29  1  0
  7 30  1  0
  7 31  1  0
  9 32  1  0
 10 33  1  0
 10 34  1  0
 10 35  1  0
 11 36  1  0
 12 37  1  0
 12 38  1  0
 14 39  1  0
 14 40  1  0
 16 41  1  0
 16 42  1  0
 17 43  1  0
 17 44  1  0
 18 45  1  0
 18 46  1  0
 19 47  1  0
M  END
>  <Energy>  (527) 
56.510654851588754

>  <compound_id>  (527) 
3500

>  <target_id>  (527) 
1

>  <reference_id>  (527) 
6

>  <inspiration_ids>  (527) 
[120, 6]

>  <energy_score>  (527) 
-50.40853786200341

>  <distance_score>  (527) 
1.1940096853468896

>  <path>  (527) 
/opt/xchem-fragalysis-2/maxwin/BulkDock/SCRATCH/505734/C3500-P6/C3500-P6.minimised.mol

>  <scratch_subdir>  (527) 
/opt/xchem-fragalysis-2/maxwin/BulkDock/SCRATCH/505734/C3500-P6

>  <fragmenstein_runtime>  (527) 
1.9557228088378906

>  <fragmenstein_outcome>  (527) 
too moved

>  <fragmenstein_mode>  (527) 
expansion

>  <fragmenstein_error>  (527) 


$$$$
C3502-P120
     RDKit          3D

 39 40  0  0  0  0  0  0  0  0999 V2000
   15.7686   -3.3379   16.0375 C   0  0  0  0  0  0  0  0  0  0  0  0
   15.0774   -2.6363   17.1812 C   0  0  0  0  0  0  0  0  0  0  0  0
   13.6624   -2.1354   16.9216 C   0  0  0  0  0  0  0  0  0  0  0  0
   12.6620   -3.1746   16.4428 C   0  0  0  0  0  0  0  0  0  0  0  0
   12.5586   -4.3019   16.8977 O   0  0  0  0  0  0  0  0  0  0  0  0
   11.6070   -2.6740   15.1245 S   0  0  0  0  0  0  0  0  0  0  0  0
   11.4009   -3.7162   13.9705 F   0  0  0  0  0  0  0  0  0  0  0  0
   10.2521   -2.0521   15.6399 F   0  0  0  0  0  0  0  0  0  0  0  0
   12.7068   -1.3995   14.6491 C   0  0  0  0  0  0  0  0  0  0  0  0
   13.3549   -0.9224   15.9756 C   0  0  0  0  0  0  0  0  0  0  0  0
   14.5016    0.0688   15.7920 C   0  0  0  0  0  0  0  0  0  0  0  0
   14.0745    1.1343   14.8889 N   0  0  0  0  0  0  0  0  0  0  0  0
   14.2460    2.4803   15.4330 C   0  0  0  0  0  0  0  0  0  0  0  0
   13.9446    3.5275   14.3670 C   0  0  0  0  0  0  0  0  0  0  0  0
   14.9459    3.4297   13.2165 C   0  0  0  0  0  0  0  0  0  0  0  0
   14.3077    3.8591   12.0161 O   0  0  0  0  0  0  0  0  0  0  0  0
   15.5135    2.0217   13.0411 C   0  0  0  0  0  0  0  0  0  0  0  0
   14.5137    0.9650   13.4978 C   0  0  0  0  0  0  0  0  0  0  0  0
   15.8364   -2.6971   15.1540 H   0  0  0  0  0  0  0  0  0  0  0  0
   16.7853   -3.6241   16.3250 H   0  0  0  0  0  0  0  0  0  0  0  0
   15.2375   -4.2448   15.7554 H   0  0  0  0  0  0  0  0  0  0  0  0
   15.0436   -3.3420   18.0221 H   0  0  0  0  0  0  0  0  0  0  0  0
   15.7028   -1.8009   17.5173 H   0  0  0  0  0  0  0  0  0  0  0  0
   13.3265   -1.8186   17.9037 H   0  0  0  0  0  0  0  0  0  0  0  0
   12.1230   -0.6213   14.1525 H   0  0  0  0  0  0  0  0  0  0  0  0
   13.4384   -1.8304   13.9608 H   0  0  0  0  0  0  0  0  0  0  0  0
   12.5532   -0.3636   16.4880 H   0  0  0  0  0  0  0  0  0  0  0  0
   14.7581    0.4720   16.7807 H   0  0  0  0  0  0  0  0  0  0  0  0
   15.4116   -0.4188   15.4268 H   0  0  0  0  0  0  0  0  0  0  0  0
   13.5609    2.6205   16.2773 H   0  0  0  0  0  0  0  0  0  0  0  0
   15.2666    2.6260   15.8103 H   0  0  0  0  0  0  0  0  0  0  0  0
   12.9163    3.4096   13.9996 H   0  0  0  0  0  0  0  0  0  0  0  0
   13.9897    4.5325   14.8035 H   0  0  0  0  0  0  0  0  0  0  0  0
   15.7755    4.1236   13.3977 H   0  0  0  0  0  0  0  0  0  0  0  0
   14.9877    3.9114   11.3228 H   0  0  0  0  0  0  0  0  0  0  0  0
   16.4280    1.9201   13.6395 H   0  0  0  0  0  0  0  0  0  0  0  0
   15.7892    1.8394   11.9961 H   0  0  0  0  0  0  0  0  0  0  0  0
   14.9403   -0.0290   13.3176 H   0  0  0  0  0  0  0  0  0  0  0  0
   13.6247    1.0242   12.8567 H   0  0  0  0  0  0  0  0  0  0  0  0
  1  2  1  0
  2  3  1  0
  3  4  1  0
  4  5  2  0
  4  6  1  0
  6  7  1  0
  6  8  1  0
  6  9  1  0
  9 10  1  0
 10 11  1  0
 11 12  1  0
 12 13  1  0
 13 14  1  0
 14 15  1  0
 15 16  1  0
 15 17  1  0
 17 18  1  0
 10  3  1  0
 18 12  1  0
  1 19  1  0
  1 20  1  0
  1 21  1  0
  2 22  1  0
  2 23  1  0
  3 24  1  0
  9 25  1  0
  9 26  1  0
 10 27  1  0
 11 28  1  0
 11 29  1  0
 13 30  1  0
 13 31  1  0
 14 32  1  0
 14 33  1  0
 15 34  1  0
 16 35  1  0
 17 36  1  0
 17 37  1  0
 18 38  1  0
 18 39  1  0
M  END
>  <Energy>  (528) 
51.729639173322418

>  <compound_id>  (528) 
3502

>  <target_id>  (528) 
1

>  <reference_id>  (528) 
120

>  <inspiration_ids>  (528) 
[120, 10]

>  <energy_score>  (528) 
-95.75366006110718

>  <distance_score>  (528) 
1.1452834884765009

>  <path>  (528) 
/opt/xchem-fragalysis-2/maxwin/BulkDock/SCRATCH/505734/C3502-P120/C3502-P120.minimised.mol

>  <scratch_subdir>  (528) 
/opt/xchem-fragalysis-2/maxwin/BulkDock/SCRATCH/505734/C3502-P120

>  <fragmenstein_runtime>  (528) 
1.7941253185272217

>  <fragmenstein_outcome>  (528) 
too moved

>  <fragmenstein_mode>  (528) 
expansion

>  <fragmenstein_error>  (528) 


$$$$
C3502-P10
     RDKit          3D

 39 40  0  0  0  0  0  0  0  0999 V2000
   15.5551   -3.9031   17.3929 C   0  0  0  0  0  0  0  0  0  0  0  0
   15.1677   -2.7658   16.4541 C   0  0  0  0  0  0  0  0  0  0  0  0
   13.7675   -2.2149   16.7076 C   0  0  0  0  0  0  0  0  0  0  0  0
   12.6640   -3.1817   16.2927 C   0  0  0  0  0  0  0  0  0  0  0  0
   12.5158   -4.3051   16.7450 O   0  0  0  0  0  0  0  0  0  0  0  0
   11.5820   -2.6378   15.0140 S   0  0  0  0  0  0  0  0  0  0  0  0
   11.3759   -3.6480   13.8305 F   0  0  0  0  0  0  0  0  0  0  0  0
   10.2332   -2.0353   15.5615 F   0  0  0  0  0  0  0  0  0  0  0  0
   12.6598   -1.3407   14.5619 C   0  0  0  0  0  0  0  0  0  0  0  0
   13.3501   -0.9342   15.8888 C   0  0  0  0  0  0  0  0  0  0  0  0
   14.4577    0.1083   15.7166 C   0  0  0  0  0  0  0  0  0  0  0  0
   13.9834    1.2133   14.8829 N   0  0  0  0  0  0  0  0  0  0  0  0
   14.2754    2.5321   15.4474 C   0  0  0  0  0  0  0  0  0  0  0  0
   13.9996    3.6283   14.4241 C   0  0  0  0  0  0  0  0  0  0  0  0
   14.9451    3.4994   13.2297 C   0  0  0  0  0  0  0  0  0  0  0  0
   14.2863    4.0001   12.0692 O   0  0  0  0  0  0  0  0  0  0  0  0
   15.4076    2.0631   12.9963 C   0  0  0  0  0  0  0  0  0  0  0  0
   14.3479    1.0713   13.4621 C   0  0  0  0  0  0  0  0  0  0  0  0
   16.5985   -4.1888   17.2247 H   0  0  0  0  0  0  0  0  0  0  0  0
   15.4511   -3.6016   18.4400 H   0  0  0  0  0  0  0  0  0  0  0  0
   14.9406   -4.7891   17.2251 H   0  0  0  0  0  0  0  0  0  0  0  0
   15.9088   -1.9736   16.6033 H   0  0  0  0  0  0  0  0  0  0  0  0
   15.2651   -3.1065   15.4178 H   0  0  0  0  0  0  0  0  0  0  0  0
   13.6701   -1.9877   17.7695 H   0  0  0  0  0  0  0  0  0  0  0  0
   12.0548   -0.5417   14.1282 H   0  0  0  0  0  0  0  0  0  0  0  0
   13.3645   -1.7375   13.8270 H   0  0  0  0  0  0  0  0  0  0  0  0
   12.5618   -0.4509   16.4854 H   0  0  0  0  0  0  0  0  0  0  0  0
   14.7329    0.4618   16.7194 H   0  0  0  0  0  0  0  0  0  0  0  0
   15.3698   -0.3236   15.2905 H   0  0  0  0  0  0  0  0  0  0  0  0
   13.6434    2.6945   16.3281 H   0  0  0  0  0  0  0  0  0  0  0  0
   15.3205    2.5989   15.7776 H   0  0  0  0  0  0  0  0  0  0  0  0
   12.9514    3.5895   14.0988 H   0  0  0  0  0  0  0  0  0  0  0  0
   14.1303    4.6146   14.8854 H   0  0  0  0  0  0  0  0  0  0  0  0
   15.8254    4.1328   13.3917 H   0  0  0  0  0  0  0  0  0  0  0  0
   14.9360    4.0209   11.3455 H   0  0  0  0  0  0  0  0  0  0  0  0
   16.3332    1.8793   13.5566 H   0  0  0  0  0  0  0  0  0  0  0  0
   15.6311    1.8920   11.9370 H   0  0  0  0  0  0  0  0  0  0  0  0
   14.6886    0.0577   13.2211 H   0  0  0  0  0  0  0  0  0  0  0  0
   13.4377    1.2245   12.8678 H   0  0  0  0  0  0  0  0  0  0  0  0
  1  2  1  0
  2  3  1  0
  3  4  1  0
  4  5  2  0
  4  6  1  0
  6  7  1  0
  6  8  1  0
  6  9  1  0
  9 10  1  0
 10 11  1  0
 11 12  1  0
 12 13  1  0
 13 14  1  0
 14 15  1  0
 15 16  1  0
 15 17  1  0
 17 18  1  0
 10  3  1  0
 18 12  1  0
  1 19  1  0
  1 20  1  0
  1 21  1  0
  2 22  1  0
  2 23  1  0
  3 24  1  0
  9 25  1  0
  9 26  1  0
 10 27  1  0
 11 28  1  0
 11 29  1  0
 13 30  1  0
 13 31  1  0
 14 32  1  0
 14 33  1  0
 15 34  1  0
 16 35  1  0
 17 36  1  0
 17 37  1  0
 18 38  1  0
 18 39  1  0
M  END
>  <Energy>  (529) 
47.850218432272854

>  <compound_id>  (529) 
3502

>  <target_id>  (529) 
1

>  <reference_id>  (529) 
10

>  <inspiration_ids>  (529) 
[120, 10]

>  <energy_score>  (529) 
-99.63308080215674

>  <distance_score>  (529) 
0.8242021503141392

>  <path>  (529) 
/opt/xchem-fragalysis-2/maxwin/BulkDock/SCRATCH/505734/C3502-P10/C3502-P10.minimised.mol

>  <scratch_subdir>  (529) 
/opt/xchem-fragalysis-2/maxwin/BulkDock/SCRATCH/505734/C3502-P10

>  <fragmenstein_runtime>  (529) 
1.4645421504974365

>  <fragmenstein_outcome>  (529) 
acceptable

>  <fragmenstein_mode>  (529) 
expansion

>  <fragmenstein_error>  (529) 


$$$$
C3503-P120
     RDKit          3D

 39 40  0  0  0  0  0  0  0  0999 V2000
   15.7512   -0.6342   15.0071 C   0  0  0  0  0  0  0  0  0  0  0  0
   14.3339   -0.6978   14.6718 N   0  0  0  0  0  0  0  0  0  0  0  0
   13.5769   -1.6465   15.5061 C   0  0  0  0  0  0  0  0  0  0  0  0
   12.2140   -2.0486   14.8934 C   0  0  0  0  0  0  0  0  0  0  0  0
   11.7154   -3.2664   15.4703 O   0  0  0  0  0  0  0  0  0  0  0  0
   13.3520   -1.2710   16.8979 N   0  0  0  0  0  0  0  0  0  0  0  0
   14.0513   -1.9804   17.8237 C   0  0  0  0  0  0  0  0  0  0  0  0
   13.8805   -3.3779   18.0544 C   0  0  0  0  0  0  0  0  0  0  0  0
   14.7005   -3.8294   19.0602 C   0  0  0  0  0  0  0  0  0  0  0  0
   15.6836   -2.5832   19.6922 S   0  0  0  0  0  0  0  0  0  0  0  0
   14.9741   -1.4155   18.6672 C   0  0  0  0  0  0  0  0  0  0  0  0
   13.6566    0.5629   14.4220 N   0  0  0  0  0  0  0  0  0  0  0  0
   14.2069    1.7552   15.0913 C   0  0  0  0  0  0  0  0  0  0  0  0
   13.5871    3.0418   14.5318 C   0  0  0  0  0  0  0  0  0  0  0  0
   13.8133    3.1717   13.0209 C   0  0  0  0  0  0  0  0  0  0  0  0
   14.7687    4.1870   12.7285 O   0  0  0  0  0  0  0  0  0  0  0  0
   14.3026    1.8772   12.3897 C   0  0  0  0  0  0  0  0  0  0  0  0
   13.5228    0.7059   12.9615 C   0  0  0  0  0  0  0  0  0  0  0  0
   15.9346   -0.1825   15.9873 H   0  0  0  0  0  0  0  0  0  0  0  0
   16.3081   -0.0708   14.2500 H   0  0  0  0  0  0  0  0  0  0  0  0
   16.1914   -1.6381   15.0134 H   0  0  0  0  0  0  0  0  0  0  0  0
   14.1551   -2.5818   15.4761 H   0  0  0  0  0  0  0  0  0  0  0  0
   12.3199   -2.2273   13.8174 H   0  0  0  0  0  0  0  0  0  0  0  0
   11.4605   -1.2678   15.0457 H   0  0  0  0  0  0  0  0  0  0  0  0
   10.8999   -3.4813   14.9840 H   0  0  0  0  0  0  0  0  0  0  0  0
   13.4383   -0.2599   16.9199 H   0  0  0  0  0  0  0  0  0  0  0  0
   13.1630   -3.9975   17.5301 H   0  0  0  0  0  0  0  0  0  0  0  0
   14.7754   -4.8240   19.4738 H   0  0  0  0  0  0  0  0  0  0  0  0
   15.2852   -0.3830   18.7276 H   0  0  0  0  0  0  0  0  0  0  0  0
   13.9998    1.7018   16.1656 H   0  0  0  0  0  0  0  0  0  0  0  0
   15.2937    1.8416   14.9761 H   0  0  0  0  0  0  0  0  0  0  0  0
   13.9904    3.9083   15.0682 H   0  0  0  0  0  0  0  0  0  0  0  0
   12.5074    3.0188   14.7298 H   0  0  0  0  0  0  0  0  0  0  0  0
   12.8731    3.4782   12.5466 H   0  0  0  0  0  0  0  0  0  0  0  0
   14.4228    5.0253   13.0805 H   0  0  0  0  0  0  0  0  0  0  0  0
   15.3810    1.7440   12.5457 H   0  0  0  0  0  0  0  0  0  0  0  0
   14.1680    1.9282   11.3022 H   0  0  0  0  0  0  0  0  0  0  0  0
   12.4562    0.8483   12.7436 H   0  0  0  0  0  0  0  0  0  0  0  0
   13.8110   -0.2069   12.4226 H   0  0  0  0  0  0  0  0  0  0  0  0
  1  2  1  0
  2  3  1  0
  3  4  1  0
  4  5  1  0
  3  6  1  0
  6  7  1  0
  7  8  1  0
  8  9  2  0
  9 10  1  0
 10 11  1  0
  2 12  1  0
 12 13  1  0
 13 14  1  0
 14 15  1  0
 15 16  1  0
 15 17  1  0
 17 18  1  0
 11  7  2  0
 18 12  1  0
  1 19  1  0
  1 20  1  0
  1 21  1  0
  3 22  1  0
  4 23  1  0
  4 24  1  0
  5 25  1  0
  6 26  1  0
  8 27  1  0
  9 28  1  0
 11 29  1  0
 13 30  1  0
 13 31  1  0
 14 32  1  0
 14 33  1  0
 15 34  1  0
 16 35  1  0
 17 36  1  0
 17 37  1  0
 18 38  1  0
 18 39  1  0
M  END
>  <Energy>  (530) 
67.362609462325182

>  <compound_id>  (530) 
3503

>  <target_id>  (530) 
1

>  <reference_id>  (530) 
120

>  <inspiration_ids>  (530) 
[120, 15]

>  <energy_score>  (530) 
-60.80023734984249

>  <distance_score>  (530) 
1.6348087042644015

>  <path>  (530) 
/opt/xchem-fragalysis-2/maxwin/BulkDock/SCRATCH/505734/C3503-P120/C3503-P120.minimised.mol

>  <scratch_subdir>  (530) 
/opt/xchem-fragalysis-2/maxwin/BulkDock/SCRATCH/505734/C3503-P120

>  <fragmenstein_runtime>  (530) 
4.703433036804199

>  <fragmenstein_outcome>  (530) 
too moved

>  <fragmenstein_mode>  (530) 
expansion

>  <fragmenstein_error>  (530) 


$$$$
C3503-P15
     RDKit          3D

 39 40  0  0  0  0  0  0  0  0999 V2000
   14.1721    0.6051   17.2265 C   0  0  0  0  0  0  0  0  0  0  0  0
   13.3111    0.1996   16.1105 N   0  0  0  0  0  0  0  0  0  0  0  0
   13.3094   -1.2673   15.9030 C   0  0  0  0  0  0  0  0  0  0  0  0
   12.1694   -1.7162   14.9354 C   0  0  0  0  0  0  0  0  0  0  0  0
   11.8351   -3.1089   15.1284 O   0  0  0  0  0  0  0  0  0  0  0  0
   13.1266   -2.1403   17.0619 N   0  0  0  0  0  0  0  0  0  0  0  0
   14.1144   -2.8810   17.6153 C   0  0  0  0  0  0  0  0  0  0  0  0
   13.8418   -4.0442   18.3865 C   0  0  0  0  0  0  0  0  0  0  0  0
   14.9891   -4.6217   18.8739 C   0  0  0  0  0  0  0  0  0  0  0  0
   16.3860   -3.7669   18.3959 S   0  0  0  0  0  0  0  0  0  0  0  0
   15.4604   -2.6199   17.5349 C   0  0  0  0  0  0  0  0  0  0  0  0
   13.5400    0.9641   14.8783 N   0  0  0  0  0  0  0  0  0  0  0  0
   13.2033    2.3797   15.0565 C   0  0  0  0  0  0  0  0  0  0  0  0
   13.0670    3.0740   13.7023 C   0  0  0  0  0  0  0  0  0  0  0  0
   14.1041    2.5950   12.6856 C   0  0  0  0  0  0  0  0  0  0  0  0
   14.5667    3.6992   11.9117 O   0  0  0  0  0  0  0  0  0  0  0  0
   15.2932    1.9332   13.3654 C   0  0  0  0  0  0  0  0  0  0  0  0
   14.8461    0.7515   14.2308 C   0  0  0  0  0  0  0  0  0  0  0  0
   14.0682    1.6713   17.4511 H   0  0  0  0  0  0  0  0  0  0  0  0
   15.2314    0.3990   17.0515 H   0  0  0  0  0  0  0  0  0  0  0  0
   13.8764    0.0997   18.1518 H   0  0  0  0  0  0  0  0  0  0  0  0
   14.2456   -1.5604   15.4104 H   0  0  0  0  0  0  0  0  0  0  0  0
   12.4516   -1.5663   13.8883 H   0  0  0  0  0  0  0  0  0  0  0  0
   11.2500   -1.1520   15.1279 H   0  0  0  0  0  0  0  0  0  0  0  0
   12.6591   -3.5501   15.4078 H   0  0  0  0  0  0  0  0  0  0  0  0
   12.1632   -2.4626   17.1435 H   0  0  0  0  0  0  0  0  0  0  0  0
   12.8554   -4.4316   18.5985 H   0  0  0  0  0  0  0  0  0  0  0  0
   15.0776   -5.4948   19.5052 H   0  0  0  0  0  0  0  0  0  0  0  0
   15.9689   -1.8154   17.0266 H   0  0  0  0  0  0  0  0  0  0  0  0
   12.2526    2.4910   15.5936 H   0  0  0  0  0  0  0  0  0  0  0  0
   13.9681    2.8997   15.6472 H   0  0  0  0  0  0  0  0  0  0  0  0
   13.1264    4.1599   13.8456 H   0  0  0  0  0  0  0  0  0  0  0  0
   12.0678    2.8806   13.2903 H   0  0  0  0  0  0  0  0  0  0  0  0
   13.6425    1.8804   11.9927 H   0  0  0  0  0  0  0  0  0  0  0  0
   13.7931    4.0792   11.4606 H   0  0  0  0  0  0  0  0  0  0  0  0
   15.8205    2.6739   13.9817 H   0  0  0  0  0  0  0  0  0  0  0  0
   16.0231    1.6002   12.6176 H   0  0  0  0  0  0  0  0  0  0  0  0
   14.7642   -0.1347   13.5897 H   0  0  0  0  0  0  0  0  0  0  0  0
   15.6492    0.5476   14.9467 H   0  0  0  0  0  0  0  0  0  0  0  0
  1  2  1  0
  2  3  1  0
  3  4  1  0
  4  5  1  0
  3  6  1  0
  6  7  1  0
  7  8  1  0
  8  9  2  0
  9 10  1  0
 10 11  1  0
  2 12  1  0
 12 13  1  0
 13 14  1  0
 14 15  1  0
 15 16  1  0
 15 17  1  0
 17 18  1  0
 11  7  2  0
 18 12  1  0
  1 19  1  0
  1 20  1  0
  1 21  1  0
  3 22  1  0
  4 23  1  0
  4 24  1  0
  5 25  1  0
  6 26  1  0
  8 27  1  0
  9 28  1  0
 11 29  1  0
 13 30  1  0
 13 31  1  0
 14 32  1  0
 14 33  1  0
 15 34  1  0
 16 35  1  0
 17 36  1  0
 17 37  1  0
 18 38  1  0
 18 39  1  0
M  END
>  <Energy>  (531) 
63.899325417088214

>  <compound_id>  (531) 
3503

>  <target_id>  (531) 
1

>  <reference_id>  (531) 
15

>  <inspiration_ids>  (531) 
[120, 15]

>  <energy_score>  (531) 
-64.26352139507932

>  <distance_score>  (531) 
1.574040364649475

>  <path>  (531) 
/opt/xchem-fragalysis-2/maxwin/BulkDock/SCRATCH/505734/C3503-P15/C3503-P15.minimised.mol

>  <scratch_subdir>  (531) 
/opt/xchem-fragalysis-2/maxwin/BulkDock/SCRATCH/505734/C3503-P15

>  <fragmenstein_runtime>  (531) 
3.6227869987487793

>  <fragmenstein_outcome>  (531) 
too moved

>  <fragmenstein_mode>  (531) 
expansion

>  <fragmenstein_error>  (531) 


$$$$
C3505-P120
     RDKit          3D

 40 42  0  0  0  0  0  0  0  0999 V2000
   16.4295    4.0090   12.7909 C   0  0  0  0  0  0  0  0  0  0  0  0
   15.1456    3.1873   12.9549 C   0  0  0  0  0  0  0  0  0  0  0  0
   14.3084    3.5317   11.8400 O   0  0  0  0  0  0  0  0  0  0  0  0
   14.3983    3.5739   14.2398 C   0  0  0  0  0  0  0  0  0  0  0  0
   14.6937    2.5926   15.3699 C   0  0  0  0  0  0  0  0  0  0  0  0
   14.2107    1.2565   15.0299 N   0  0  0  0  0  0  0  0  0  0  0  0
   14.4977    0.2115   16.0185 C   0  0  0  0  0  0  0  0  0  0  0  0
   13.9479    0.3574   17.4075 C   0  0  0  0  0  0  0  0  0  0  0  0
   13.3590   -0.6827   16.4941 C   0  0  0  0  0  0  0  0  0  0  0  0
   13.6402   -2.1055   16.9205 C   0  0  0  0  0  0  0  0  0  0  0  0
   13.3883   -3.0945   15.8107 C   0  0  0  0  0  0  0  0  0  0  0  0
   11.9766   -3.0249   15.2486 C   0  0  0  0  0  0  0  0  0  0  0  0
   11.7272   -1.4311   14.4693 S   0  0  0  0  0  0  0  0  0  0  0  0
   11.9859   -0.4290   15.9227 C   0  0  0  0  0  0  0  0  0  0  0  0
   14.4038    0.8564   13.6338 C   0  0  0  0  0  0  0  0  0  0  0  0
   15.4795    1.6747   12.9088 C   0  0  0  0  0  0  0  0  0  0  0  0
   15.6057    1.2660   11.5365 O   0  0  0  0  0  0  0  0  0  0  0  0
   16.2034    5.0802   12.7379 H   0  0  0  0  0  0  0  0  0  0  0  0
   17.1242    3.8422   13.6204 H   0  0  0  0  0  0  0  0  0  0  0  0
   16.9397    3.7561   11.8544 H   0  0  0  0  0  0  0  0  0  0  0  0
   14.5940    2.9304   11.1208 H   0  0  0  0  0  0  0  0  0  0  0  0
   14.6671    4.5898   14.5548 H   0  0  0  0  0  0  0  0  0  0  0  0
   13.3151    3.6022   14.0568 H   0  0  0  0  0  0  0  0  0  0  0  0
   15.7703    2.5756   15.5815 H   0  0  0  0  0  0  0  0  0  0  0  0
   14.1932    2.9512   16.2762 H   0  0  0  0  0  0  0  0  0  0  0  0
   15.4879   -0.2333   15.9426 H   0  0  0  0  0  0  0  0  0  0  0  0
   14.5841    0.0470   18.2298 H   0  0  0  0  0  0  0  0  0  0  0  0
   13.3595    1.2376   17.6421 H   0  0  0  0  0  0  0  0  0  0  0  0
   14.6796   -2.2096   17.2571 H   0  0  0  0  0  0  0  0  0  0  0  0
   13.0176   -2.3844   17.7695 H   0  0  0  0  0  0  0  0  0  0  0  0
   14.1299   -2.8831   15.0316 H   0  0  0  0  0  0  0  0  0  0  0  0
   13.5762   -4.1026   16.1931 H   0  0  0  0  0  0  0  0  0  0  0  0
   11.2294   -3.1915   16.0274 H   0  0  0  0  0  0  0  0  0  0  0  0
   11.8053   -3.7655   14.4731 H   0  0  0  0  0  0  0  0  0  0  0  0
   11.2158   -0.7042   16.6363 H   0  0  0  0  0  0  0  0  0  0  0  0
   11.8112    0.6224   15.6741 H   0  0  0  0  0  0  0  0  0  0  0  0
   14.6465   -0.2109   13.5488 H   0  0  0  0  0  0  0  0  0  0  0  0
   13.4516    0.9724   13.1001 H   0  0  0  0  0  0  0  0  0  0  0  0
   16.4460    1.4842   13.3931 H   0  0  0  0  0  0  0  0  0  0  0  0
   15.7499    0.3028   11.5431 H   0  0  0  0  0  0  0  0  0  0  0  0
  1  2  1  0
  2  3  1  0
  2  4  1  0
  4  5  1  0
  5  6  1  0
  6  7  1  0
  7  8  1  0
  8  9  1  0
  9 10  1  0
 10 11  1  0
 11 12  1  0
 12 13  1  0
 13 14  1  0
  6 15  1  0
 15 16  1  0
 16 17  1  0
 16  2  1  0
  9  7  1  0
 14  9  1  0
  1 18  1  0
  1 19  1  0
  1 20  1  0
  3 21  1  0
  4 22  1  0
  4 23  1  0
  5 24  1  0
  5 25  1  0
  7 26  1  0
  8 27  1  0
  8 28  1  0
 10 29  1  0
 10 30  1  0
 11 31  1  0
 11 32  1  0
 12 33  1  0
 12 34  1  0
 14 35  1  0
 14 36  1  0
 15 37  1  0
 15 38  1  0
 16 39  1  0
 17 40  1  0
M  END
>  <Energy>  (532) 
60.507274771761814

>  <compound_id>  (532) 
3505

>  <target_id>  (532) 
1

>  <reference_id>  (532) 
120

>  <inspiration_ids>  (532) 
[120, 23]

>  <energy_score>  (532) 
-55.63094278979807

>  <distance_score>  (532) 
1.480400912156289

>  <path>  (532) 
/opt/xchem-fragalysis-2/maxwin/BulkDock/SCRATCH/505734/C3505-P120/C3505-P120.minimised.mol

>  <scratch_subdir>  (532) 
/opt/xchem-fragalysis-2/maxwin/BulkDock/SCRATCH/505734/C3505-P120

>  <fragmenstein_runtime>  (532) 
1.7820239067077637

>  <fragmenstein_outcome>  (532) 
too moved

>  <fragmenstein_mode>  (532) 
expansion

>  <fragmenstein_error>  (532) 


$$$$
C3505-P23
     RDKit          3D

 40 42  0  0  0  0  0  0  0  0999 V2000
   16.1273    4.2851   13.0011 C   0  0  0  0  0  0  0  0  0  0  0  0
   14.9584    3.2940   13.0078 C   0  0  0  0  0  0  0  0  0  0  0  0
   14.0487    3.7256   11.9769 O   0  0  0  0  0  0  0  0  0  0  0  0
   14.2193    3.2992   14.3571 C   0  0  0  0  0  0  0  0  0  0  0  0
   14.7428    2.1950   15.2727 C   0  0  0  0  0  0  0  0  0  0  0  0
   14.4919    0.8640   14.7111 N   0  0  0  0  0  0  0  0  0  0  0  0
   15.2588   -0.2166   15.3554 C   0  0  0  0  0  0  0  0  0  0  0  0
   14.9525   -0.5841   16.7717 C   0  0  0  0  0  0  0  0  0  0  0  0
   14.5571   -1.5361   15.6633 C   0  0  0  0  0  0  0  0  0  0  0  0
   15.3597   -2.8067   15.6582 C   0  0  0  0  0  0  0  0  0  0  0  0
   14.7646   -3.8689   16.5813 C   0  0  0  0  0  0  0  0  0  0  0  0
   13.3441   -3.6234   17.0580 C   0  0  0  0  0  0  0  0  0  0  0  0
   12.1924   -3.0157   15.7982 S   0  0  0  0  0  0  0  0  0  0  0  0
   13.1714   -1.6886   15.0722 C   0  0  0  0  0  0  0  0  0  0  0  0
   14.5505    0.8088   13.2418 C   0  0  0  0  0  0  0  0  0  0  0  0
   15.4652    1.8774   12.6375 C   0  0  0  0  0  0  0  0  0  0  0  0
   15.5227    1.7370   11.2134 O   0  0  0  0  0  0  0  0  0  0  0  0
   16.8729    4.0363   13.7631 H   0  0  0  0  0  0  0  0  0  0  0  0
   16.6213    4.2994   12.0228 H   0  0  0  0  0  0  0  0  0  0  0  0
   15.7750    5.3069   13.1831 H   0  0  0  0  0  0  0  0  0  0  0  0
   13.6661    4.5760   12.2592 H   0  0  0  0  0  0  0  0  0  0  0  0
   14.3248    4.2727   14.8513 H   0  0  0  0  0  0  0  0  0  0  0  0
   13.1400    3.1653   14.2016 H   0  0  0  0  0  0  0  0  0  0  0  0
   15.8165    2.3463   15.4448 H   0  0  0  0  0  0  0  0  0  0  0  0
   14.2497    2.2778   16.2467 H   0  0  0  0  0  0  0  0  0  0  0  0
   16.3066   -0.2682   15.0623 H   0  0  0  0  0  0  0  0  0  0  0  0
   15.7967   -0.8438   17.4062 H   0  0  0  0  0  0  0  0  0  0  0  0
   14.2626    0.0415   17.3001 H   0  0  0  0  0  0  0  0  0  0  0  0
   15.4570   -3.1656   14.6313 H   0  0  0  0  0  0  0  0  0  0  0  0
   16.3969   -2.6222   15.9702 H   0  0  0  0  0  0  0  0  0  0  0  0
   14.8505   -4.8530   16.1127 H   0  0  0  0  0  0  0  0  0  0  0  0
   15.4002   -3.9435   17.4745 H   0  0  0  0  0  0  0  0  0  0  0  0
   13.3756   -2.8938   17.8669 H   0  0  0  0  0  0  0  0  0  0  0  0
   12.9357   -4.5424   17.4874 H   0  0  0  0  0  0  0  0  0  0  0  0
   12.5821   -0.7726   15.1261 H   0  0  0  0  0  0  0  0  0  0  0  0
   13.2697   -1.9166   14.0043 H   0  0  0  0  0  0  0  0  0  0  0  0
   14.8567   -0.1836   12.8853 H   0  0  0  0  0  0  0  0  0  0  0  0
   13.5335    0.9370   12.8471 H   0  0  0  0  0  0  0  0  0  0  0  0
   16.4819    1.7161   13.0171 H   0  0  0  0  0  0  0  0  0  0  0  0
   14.8251    2.3429   10.8821 H   0  0  0  0  0  0  0  0  0  0  0  0
  1  2  1  0
  2  3  1  0
  2  4  1  0
  4  5  1  0
  5  6  1  0
  6  7  1  0
  7  8  1  0
  8  9  1  0
  9 10  1  0
 10 11  1  0
 11 12  1  0
 12 13  1  0
 13 14  1  0
  6 15  1  0
 15 16  1  0
 16 17  1  0
 16  2  1  0
  9  7  1  0
 14  9  1  0
  1 18  1  0
  1 19  1  0
  1 20  1  0
  3 21  1  0
  4 22  1  0
  4 23  1  0
  5 24  1  0
  5 25  1  0
  7 26  1  0
  8 27  1  0
  8 28  1  0
 10 29  1  0
 10 30  1  0
 11 31  1  0
 11 32  1  0
 12 33  1  0
 12 34  1  0
 14 35  1  0
 14 36  1  0
 15 37  1  0
 15 38  1  0
 16 39  1  0
 17 40  1  0
M  END
>  <Energy>  (533) 
65.808095029827825

>  <compound_id>  (533) 
3505

>  <target_id>  (533) 
1

>  <reference_id>  (533) 
23

>  <inspiration_ids>  (533) 
[120, 23]

>  <energy_score>  (533) 
-50.330122531732826

>  <distance_score>  (533) 
1.4685344445347512

>  <path>  (533) 
/opt/xchem-fragalysis-2/maxwin/BulkDock/SCRATCH/505734/C3505-P23/C3505-P23.minimised.mol

>  <scratch_subdir>  (533) 
/opt/xchem-fragalysis-2/maxwin/BulkDock/SCRATCH/505734/C3505-P23

>  <fragmenstein_runtime>  (533) 
2.2400763034820557

>  <fragmenstein_outcome>  (533) 
too moved

>  <fragmenstein_mode>  (533) 
expansion

>  <fragmenstein_error>  (533) 


$$$$
C3509-P120
     RDKit          3D

 49 51  0  0  0  0  0  0  0  0999 V2000
   17.7856   -1.9520   13.6637 C   0  0  0  0  0  0  0  0  0  0  0  0
   17.8332   -2.7914   14.9228 C   0  0  0  0  0  0  0  0  0  0  0  0
   18.5940   -3.6756   15.0721 O   0  0  0  0  0  0  0  0  0  0  0  0
   16.7563   -2.2568   15.8477 N   0  0  0  0  0  0  0  0  0  0  0  0
   16.4113   -2.6248   17.2514 C   0  0  0  0  0  0  0  0  0  0  0  0
   15.0559   -2.0835   17.6794 C   0  0  0  0  0  0  0  0  0  0  0  0
   15.2206   -0.7199   18.2977 C   0  0  0  0  0  0  0  0  0  0  0  0
   16.1966    0.0076   18.2678 O   0  0  0  0  0  0  0  0  0  0  0  0
   14.1257   -0.3315   18.9725 O   0  0  0  0  0  0  0  0  0  0  0  0
   14.2735   -2.2928   16.3886 C   0  0  0  0  0  0  0  0  0  0  0  0
   13.1327   -3.3196   16.6020 C   0  0  0  0  0  0  0  0  0  0  0  0
   11.7275   -2.8170   15.5944 S   0  0  0  0  0  0  0  0  0  0  0  0
   12.1714   -1.0843   15.6456 C   0  0  0  0  0  0  0  0  0  0  0  0
   13.6924   -1.1212   15.5152 C   0  0  0  0  0  0  0  0  0  0  0  0
   14.2791    0.2817   15.7076 C   0  0  0  0  0  0  0  0  0  0  0  0
   13.7821    1.2265   14.7002 N   0  0  0  0  0  0  0  0  0  0  0  0
   13.8708    2.6081   15.1921 C   0  0  0  0  0  0  0  0  0  0  0  0
   13.6955    3.6066   14.0580 C   0  0  0  0  0  0  0  0  0  0  0  0
   14.8449    3.4821   13.0606 C   0  0  0  0  0  0  0  0  0  0  0  0
   14.3909    3.8540   11.7618 O   0  0  0  0  0  0  0  0  0  0  0  0
   15.4344    2.0747   13.0072 C   0  0  0  0  0  0  0  0  0  0  0  0
   14.3874    1.0273   13.3712 C   0  0  0  0  0  0  0  0  0  0  0  0
   15.4457   -2.9513   15.6157 C   0  0  0  0  0  0  0  0  0  0  0  0
   17.2987   -2.5239   12.8697 H   0  0  0  0  0  0  0  0  0  0  0  0
   17.2405   -1.0165   13.8187 H   0  0  0  0  0  0  0  0  0  0  0  0
   18.8074   -1.7028   13.3642 H   0  0  0  0  0  0  0  0  0  0  0  0
   16.5440   -3.7061   17.4399 H   0  0  0  0  0  0  0  0  0  0  0  0
   17.2213   -2.1904   17.8538 H   0  0  0  0  0  0  0  0  0  0  0  0
   14.7072   -2.7296   18.4966 H   0  0  0  0  0  0  0  0  0  0  0  0
   14.3926    0.5199   19.3853 H   0  0  0  0  0  0  0  0  0  0  0  0
   13.4127   -4.3403   16.3443 H   0  0  0  0  0  0  0  0  0  0  0  0
   12.7927   -3.3245   17.6411 H   0  0  0  0  0  0  0  0  0  0  0  0
   11.6858   -0.5457   14.8270 H   0  0  0  0  0  0  0  0  0  0  0  0
   11.8568   -0.6472   16.5937 H   0  0  0  0  0  0  0  0  0  0  0  0
   13.8714   -1.3971   14.4665 H   0  0  0  0  0  0  0  0  0  0  0  0
   13.9546    0.6534   16.6828 H   0  0  0  0  0  0  0  0  0  0  0  0
   15.3744    0.2620   15.6935 H   0  0  0  0  0  0  0  0  0  0  0  0
   13.0847    2.7724   15.9386 H   0  0  0  0  0  0  0  0  0  0  0  0
   14.8336    2.7920   15.6880 H   0  0  0  0  0  0  0  0  0  0  0  0
   13.6671    4.6286   14.4546 H   0  0  0  0  0  0  0  0  0  0  0  0
   12.7282    3.4534   13.5611 H   0  0  0  0  0  0  0  0  0  0  0  0
   15.6471    4.1814   13.3248 H   0  0  0  0  0  0  0  0  0  0  0  0
   14.0249    4.7530   11.8255 H   0  0  0  0  0  0  0  0  0  0  0  0
   16.2679    1.9991   13.7174 H   0  0  0  0  0  0  0  0  0  0  0  0
   15.8386    1.8608   12.0109 H   0  0  0  0  0  0  0  0  0  0  0  0
   14.8390    0.0354   13.2620 H   0  0  0  0  0  0  0  0  0  0  0  0
   13.5778    1.0639   12.6309 H   0  0  0  0  0  0  0  0  0  0  0  0
   15.2754   -2.8652   14.5348 H   0  0  0  0  0  0  0  0  0  0  0  0
   15.5380   -4.0451   15.7441 H   0  0  0  0  0  0  0  0  0  0  0  0
  1  2  1  0
  2  3  2  0
  2  4  1  0
  4  5  1  0
  5  6  1  0
  6  7  1  0
  7  8  2  0
  7  9  1  0
  6 10  1  0
 10 11  1  0
 11 12  1  0
 12 13  1  0
 13 14  1  0
 14 15  1  0
 15 16  1  0
 16 17  1  0
 17 18  1  0
 18 19  1  0
 19 20  1  0
 19 21  1  0
 21 22  1  0
 10 23  1  0
 23  4  1  0
 14 10  1  0
 22 16  1  0
  1 24  1  0
  1 25  1  0
  1 26  1  0
  5 27  1  0
  5 28  1  0
  6 29  1  0
  9 30  1  0
 11 31  1  0
 11 32  1  0
 13 33  1  0
 13 34  1  0
 14 35  1  0
 15 36  1  0
 15 37  1  0
 17 38  1  0
 17 39  1  0
 18 40  1  0
 18 41  1  0
 19 42  1  0
 20 43  1  0
 21 44  1  0
 21 45  1  0
 22 46  1  0
 22 47  1  0
 23 48  1  0
 23 49  1  0
M  END
>  <Energy>  (534) 
67.069940034874605

>  <compound_id>  (534) 
3509

>  <target_id>  (534) 
1

>  <reference_id>  (534) 
120

>  <inspiration_ids>  (534) 
[120, 36]

>  <energy_score>  (534) 
12.773608670037788

>  <distance_score>  (534) 
1.2648085488479444

>  <path>  (534) 
/opt/xchem-fragalysis-2/maxwin/BulkDock/SCRATCH/505734/C3509-P120/C3509-P120.minimised.mol

>  <scratch_subdir>  (534) 
/opt/xchem-fragalysis-2/maxwin/BulkDock/SCRATCH/505734/C3509-P120

>  <fragmenstein_runtime>  (534) 
3.5196332931518555

>  <fragmenstein_outcome>  (534) 
too moved

>  <fragmenstein_mode>  (534) 
expansion

>  <fragmenstein_error>  (534) 


$$$$
C3509-P36
     RDKit          3D

 49 51  0  0  0  0  0  0  0  0999 V2000
   17.8560   -1.9765   13.7768 C   0  0  0  0  0  0  0  0  0  0  0  0
   17.8993   -2.8070   15.0418 C   0  0  0  0  0  0  0  0  0  0  0  0
   18.6771   -3.6729   15.2102 O   0  0  0  0  0  0  0  0  0  0  0  0
   16.7928   -2.2929   15.9430 N   0  0  0  0  0  0  0  0  0  0  0  0
   16.4292   -2.6621   17.3416 C   0  0  0  0  0  0  0  0  0  0  0  0
   15.0526   -2.1585   17.7438 C   0  0  0  0  0  0  0  0  0  0  0  0
   15.0512   -0.8038   18.4019 C   0  0  0  0  0  0  0  0  0  0  0  0
   14.0650   -0.2619   18.8734 O   0  0  0  0  0  0  0  0  0  0  0  0
   16.2314   -0.1724   18.4553 O   0  0  0  0  0  0  0  0  0  0  0  0
   14.3031   -2.3782   16.4339 C   0  0  0  0  0  0  0  0  0  0  0  0
   13.1736   -3.4235   16.6198 C   0  0  0  0  0  0  0  0  0  0  0  0
   11.7631   -2.9008   15.6275 S   0  0  0  0  0  0  0  0  0  0  0  0
   12.2079   -1.1674   15.6907 C   0  0  0  0  0  0  0  0  0  0  0  0
   13.7270   -1.2082   15.5492 C   0  0  0  0  0  0  0  0  0  0  0  0
   14.3159    0.1990   15.7206 C   0  0  0  0  0  0  0  0  0  0  0  0
   13.8248    1.1292   14.6961 N   0  0  0  0  0  0  0  0  0  0  0  0
   13.8666    2.5161   15.1776 C   0  0  0  0  0  0  0  0  0  0  0  0
   13.6807    3.5001   14.0327 C   0  0  0  0  0  0  0  0  0  0  0  0
   14.8486    3.3994   13.0550 C   0  0  0  0  0  0  0  0  0  0  0  0
   14.4103    3.7641   11.7490 O   0  0  0  0  0  0  0  0  0  0  0  0
   15.4696    2.0042   13.0128 C   0  0  0  0  0  0  0  0  0  0  0  0
   14.4482    0.9313   13.3776 C   0  0  0  0  0  0  0  0  0  0  0  0
   15.5015   -3.0192   15.6891 C   0  0  0  0  0  0  0  0  0  0  0  0
   17.3854   -2.5594   12.9808 H   0  0  0  0  0  0  0  0  0  0  0  0
   17.2984   -1.0467   13.9201 H   0  0  0  0  0  0  0  0  0  0  0  0
   18.8782   -1.7167   13.4876 H   0  0  0  0  0  0  0  0  0  0  0  0
   16.5814   -3.7409   17.5322 H   0  0  0  0  0  0  0  0  0  0  0  0
   17.2221   -2.2197   17.9585 H   0  0  0  0  0  0  0  0  0  0  0  0
   14.7062   -2.8328   18.5393 H   0  0  0  0  0  0  0  0  0  0  0  0
   16.0476    0.6651   18.9326 H   0  0  0  0  0  0  0  0  0  0  0  0
   13.4673   -4.4389   16.3423 H   0  0  0  0  0  0  0  0  0  0  0  0
   12.8286   -3.4560   17.6575 H   0  0  0  0  0  0  0  0  0  0  0  0
   11.7176   -0.6228   14.8788 H   0  0  0  0  0  0  0  0  0  0  0  0
   11.8997   -0.7365   16.6443 H   0  0  0  0  0  0  0  0  0  0  0  0
   13.9036   -1.4946   14.5023 H   0  0  0  0  0  0  0  0  0  0  0  0
   13.9850    0.5934   16.6821 H   0  0  0  0  0  0  0  0  0  0  0  0
   15.4113    0.1795   15.7215 H   0  0  0  0  0  0  0  0  0  0  0  0
   13.0649    2.6646   15.9105 H   0  0  0  0  0  0  0  0  0  0  0  0
   14.8165    2.7300   15.6859 H   0  0  0  0  0  0  0  0  0  0  0  0
   13.6171    4.5243   14.4196 H   0  0  0  0  0  0  0  0  0  0  0  0
   12.7264    3.3152   13.5217 H   0  0  0  0  0  0  0  0  0  0  0  0
   15.6314    4.1148   13.3335 H   0  0  0  0  0  0  0  0  0  0  0  0
   14.0182    4.6524   11.8078 H   0  0  0  0  0  0  0  0  0  0  0  0
   16.3001    1.9528   13.7286 H   0  0  0  0  0  0  0  0  0  0  0  0
   15.8857    1.7943   12.0206 H   0  0  0  0  0  0  0  0  0  0  0  0
   14.9265   -0.0503   13.2879 H   0  0  0  0  0  0  0  0  0  0  0  0
   13.6466    0.9371   12.6279 H   0  0  0  0  0  0  0  0  0  0  0  0
   15.3518   -2.9388   14.6054 H   0  0  0  0  0  0  0  0  0  0  0  0
   15.6102   -4.1122   15.8229 H   0  0  0  0  0  0  0  0  0  0  0  0
  1  2  1  0
  2  3  2  0
  2  4  1  0
  4  5  1  0
  5  6  1  0
  6  7  1  0
  7  8  2  0
  7  9  1  0
  6 10  1  0
 10 11  1  0
 11 12  1  0
 12 13  1  0
 13 14  1  0
 14 15  1  0
 15 16  1  0
 16 17  1  0
 17 18  1  0
 18 19  1  0
 19 20  1  0
 19 21  1  0
 21 22  1  0
 10 23  1  0
 23  4  1  0
 14 10  1  0
 22 16  1  0
  1 24  1  0
  1 25  1  0
  1 26  1  0
  5 27  1  0
  5 28  1  0
  6 29  1  0
  9 30  1  0
 11 31  1  0
 11 32  1  0
 13 33  1  0
 13 34  1  0
 14 35  1  0
 15 36  1  0
 15 37  1  0
 17 38  1  0
 17 39  1  0
 18 40  1  0
 18 41  1  0
 19 42  1  0
 20 43  1  0
 21 44  1  0
 21 45  1  0
 22 46  1  0
 22 47  1  0
 23 48  1  0
 23 49  1  0
M  END
>  <Energy>  (535) 
68.118946907112317

>  <compound_id>  (535) 
3509

>  <target_id>  (535) 
1

>  <reference_id>  (535) 
36

>  <inspiration_ids>  (535) 
[120, 36]

>  <energy_score>  (535) 
13.822615542276054

>  <distance_score>  (535) 
1.1923314459260257

>  <path>  (535) 
/opt/xchem-fragalysis-2/maxwin/BulkDock/SCRATCH/505734/C3509-P36/C3509-P36.minimised.mol

>  <scratch_subdir>  (535) 
/opt/xchem-fragalysis-2/maxwin/BulkDock/SCRATCH/505734/C3509-P36

>  <fragmenstein_runtime>  (535) 
3.600266218185425

>  <fragmenstein_outcome>  (535) 
too moved

>  <fragmenstein_mode>  (535) 
expansion

>  <fragmenstein_error>  (535) 


$$$$
C3511-P120
     RDKit          3D

 55 59  0  0  0  0  0  0  0  0999 V2000
   17.1224   -2.0880   17.6674 C   0  0  0  0  0  0  0  0  0  0  0  0
   15.8452   -2.7990   17.5681 N   0  0  0  0  0  0  0  0  0  0  0  0
   15.2373   -2.4574   16.3013 N   0  0  0  0  0  0  0  0  0  0  0  0
   13.8378   -2.1304   16.5567 C   0  0  0  0  0  0  0  0  0  0  0  0
   12.8610   -3.3301   16.4061 C   0  0  0  0  0  0  0  0  0  0  0  0
   11.4830   -2.8150   15.3473 S   0  0  0  0  0  0  0  0  0  0  0  0
   11.9084   -1.0687   15.3745 C   0  0  0  0  0  0  0  0  0  0  0  0
   13.4246   -1.0848   15.4846 C   0  0  0  0  0  0  0  0  0  0  0  0
   13.9805    0.3238   15.7589 C   0  0  0  0  0  0  0  0  0  0  0  0
   13.7897    1.2635   14.6488 N   0  0  0  0  0  0  0  0  0  0  0  0
   14.0840    2.6336   15.0709 C   0  0  0  0  0  0  0  0  0  0  0  0
   13.6767    3.6277   13.9846 C   0  0  0  0  0  0  0  0  0  0  0  0
   14.0134    3.1302   12.5784 C   0  0  0  0  0  0  0  0  0  0  0  0
   14.4873    4.2124   11.7819 O   0  0  0  0  0  0  0  0  0  0  0  0
   15.0531    2.0227   12.6072 C   0  0  0  0  0  0  0  0  0  0  0  0
   14.5694    0.8566   13.4643 C   0  0  0  0  0  0  0  0  0  0  0  0
   13.8821   -1.6329   17.9337 N   0  0  0  0  0  0  0  0  0  0  0  0
   14.9183   -2.4004   18.6167 C   0  0  0  0  0  0  0  0  0  0  0  0
   14.2511   -3.8637   19.4823 S   0  0  0  0  0  0  0  0  0  0  0  0
   15.3159   -3.9325   20.8459 C   0  0  0  0  0  0  0  0  0  0  0  0
   14.9577   -3.3679   22.0177 C   0  0  0  0  0  0  0  0  0  0  0  0
   15.8697   -3.4183   23.1510 C   0  0  0  0  0  0  0  0  0  0  0  0
   17.0727   -4.0149   23.0578 C   0  0  0  0  0  0  0  0  0  0  0  0
   17.4606   -4.6174   21.8315 C   0  0  0  0  0  0  0  0  0  0  0  0
   18.5562   -5.2421   21.4596 N   0  0  0  0  0  0  0  0  0  0  0  0
   18.3897   -5.6407   20.1536 N   0  0  0  0  0  0  0  0  0  0  0  0
   17.1961   -5.2521   19.7635 C   0  0  0  0  0  0  0  0  0  0  0  0
   16.5630   -4.5709   20.7706 N   0  0  0  0  0  0  0  0  0  0  0  0
   17.6167   -2.3180   18.6176 H   0  0  0  0  0  0  0  0  0  0  0  0
   17.0038   -0.9999   17.5967 H   0  0  0  0  0  0  0  0  0  0  0  0
   17.8032   -2.4117   16.8716 H   0  0  0  0  0  0  0  0  0  0  0  0
   15.3083   -3.2245   15.6265 H   0  0  0  0  0  0  0  0  0  0  0  0
   12.4281   -3.6409   17.3568 H   0  0  0  0  0  0  0  0  0  0  0  0
   13.3462   -4.2129   15.9925 H   0  0  0  0  0  0  0  0  0  0  0  0
   11.4331   -0.5890   16.2335 H   0  0  0  0  0  0  0  0  0  0  0  0
   11.5609   -0.5779   14.4610 H   0  0  0  0  0  0  0  0  0  0  0  0
   13.8228   -1.4326   14.5182 H   0  0  0  0  0  0  0  0  0  0  0  0
   15.0464    0.2780   16.0178 H   0  0  0  0  0  0  0  0  0  0  0  0
   13.4590    0.7291   16.6362 H   0  0  0  0  0  0  0  0  0  0  0  0
   13.5275    2.8892   15.9813 H   0  0  0  0  0  0  0  0  0  0  0  0
   15.1497    2.7476   15.3097 H   0  0  0  0  0  0  0  0  0  0  0  0
   14.1480    4.5972   14.1873 H   0  0  0  0  0  0  0  0  0  0  0  0
   12.5944    3.8052   14.0371 H   0  0  0  0  0  0  0  0  0  0  0  0
   13.1011    2.7581   12.0968 H   0  0  0  0  0  0  0  0  0  0  0  0
   15.3195    4.5303   12.1708 H   0  0  0  0  0  0  0  0  0  0  0  0
   15.2753    1.6808   11.5892 H   0  0  0  0  0  0  0  0  0  0  0  0
   16.0010    2.4149   12.9996 H   0  0  0  0  0  0  0  0  0  0  0  0
   15.4531    0.2666   13.7402 H   0  0  0  0  0  0  0  0  0  0  0  0
   13.9327    0.2095   12.8487 H   0  0  0  0  0  0  0  0  0  0  0  0
   14.2763   -0.7007   17.8988 H   0  0  0  0  0  0  0  0  0  0  0  0
   15.3783   -1.7503   19.3713 H   0  0  0  0  0  0  0  0  0  0  0  0
   14.0042   -2.8639   22.1585 H   0  0  0  0  0  0  0  0  0  0  0  0
   15.5477   -2.9545   24.0794 H   0  0  0  0  0  0  0  0  0  0  0  0
   17.7575   -4.0544   23.8977 H   0  0  0  0  0  0  0  0  0  0  0  0
   16.7602   -5.4293   18.7911 H   0  0  0  0  0  0  0  0  0  0  0  0
  1  2  1  0
  2  3  1  0
  3  4  1  0
  4  5  1  0
  5  6  1  0
  6  7  1  0
  7  8  1  0
  8  9  1  0
  9 10  1  0
 10 11  1  0
 11 12  1  0
 12 13  1  0
 13 14  1  0
 13 15  1  0
 15 16  1  0
  4 17  1  0
 17 18  1  0
 18 19  1  0
 19 20  1  0
 20 21  2  0
 21 22  1  0
 22 23  2  0
 23 24  1  0
 24 25  2  0
 25 26  1  0
 26 27  2  0
 27 28  1  0
 18  2  1  0
 28 20  1  0
  8  4  1  0
 16 10  1  0
 28 24  1  0
  1 29  1  0
  1 30  1  0
  1 31  1  0
  3 32  1  0
  5 33  1  0
  5 34  1  0
  7 35  1  0
  7 36  1  0
  8 37  1  0
  9 38  1  0
  9 39  1  0
 11 40  1  0
 11 41  1  0
 12 42  1  0
 12 43  1  0
 13 44  1  0
 14 45  1  0
 15 46  1  0
 15 47  1  0
 16 48  1  0
 16 49  1  0
 17 50  1  0
 18 51  1  0
 21 52  1  0
 22 53  1  0
 23 54  1  0
 27 55  1  0
M  END
>  <Energy>  (536) 
43.628631836206132

>  <compound_id>  (536) 
3511

>  <target_id>  (536) 
1

>  <reference_id>  (536) 
120

>  <inspiration_ids>  (536) 
[120, 55]

>  <energy_score>  (536) 
-91.2940841973282

>  <distance_score>  (536) 
1.3146860722642149

>  <path>  (536) 
/opt/xchem-fragalysis-2/maxwin/BulkDock/SCRATCH/505734/C3511-P120/C3511-P120.minimised.mol

>  <scratch_subdir>  (536) 
/opt/xchem-fragalysis-2/maxwin/BulkDock/SCRATCH/505734/C3511-P120

>  <fragmenstein_runtime>  (536) 
4.8972132205963135

>  <fragmenstein_outcome>  (536) 
too moved

>  <fragmenstein_mode>  (536) 
expansion

>  <fragmenstein_error>  (536) 


$$$$
C3511-P55
     RDKit          3D

 55 59  0  0  0  0  0  0  0  0999 V2000
   16.7167   -1.1162   17.3613 C   0  0  0  0  0  0  0  0  0  0  0  0
   15.7036   -2.0052   17.9239 N   0  0  0  0  0  0  0  0  0  0  0  0
   14.3783   -1.5297   17.6379 N   0  0  0  0  0  0  0  0  0  0  0  0
   13.9338   -2.2138   16.4115 C   0  0  0  0  0  0  0  0  0  0  0  0
   12.4904   -2.7162   16.5533 C   0  0  0  0  0  0  0  0  0  0  0  0
   11.7324   -2.7828   14.9283 S   0  0  0  0  0  0  0  0  0  0  0  0
   12.9813   -1.7550   14.1297 C   0  0  0  0  0  0  0  0  0  0  0  0
   13.9209   -1.2200   15.2197 C   0  0  0  0  0  0  0  0  0  0  0  0
   13.5560    0.2286   15.6291 C   0  0  0  0  0  0  0  0  0  0  0  0
   13.6758    1.2052   14.5319 N   0  0  0  0  0  0  0  0  0  0  0  0
   13.3362    2.5515   14.9978 C   0  0  0  0  0  0  0  0  0  0  0  0
   13.1728    3.5015   13.8096 C   0  0  0  0  0  0  0  0  0  0  0  0
   14.0938    3.1458   12.6408 C   0  0  0  0  0  0  0  0  0  0  0  0
   14.4435    4.3188   11.9132 O   0  0  0  0  0  0  0  0  0  0  0  0
   15.3521    2.4524   13.1322 C   0  0  0  0  0  0  0  0  0  0  0  0
   14.9992    1.1731   13.8855 C   0  0  0  0  0  0  0  0  0  0  0  0
   14.8660   -3.3373   16.2209 N   0  0  0  0  0  0  0  0  0  0  0  0
   15.7474   -3.3529   17.3791 C   0  0  0  0  0  0  0  0  0  0  0  0
   15.1341   -4.6091   18.5803 S   0  0  0  0  0  0  0  0  0  0  0  0
   15.5451   -3.9096   20.1127 C   0  0  0  0  0  0  0  0  0  0  0  0
   14.5685   -3.4940   20.9462 C   0  0  0  0  0  0  0  0  0  0  0  0
   14.9192   -2.8714   22.2144 C   0  0  0  0  0  0  0  0  0  0  0  0
   16.2025   -2.7062   22.5854 C   0  0  0  0  0  0  0  0  0  0  0  0
   17.2407   -3.1594   21.7286 C   0  0  0  0  0  0  0  0  0  0  0  0
   18.5522   -3.1351   21.8327 N   0  0  0  0  0  0  0  0  0  0  0  0
   19.0754   -3.7376   20.7118 N   0  0  0  0  0  0  0  0  0  0  0  0
   18.0697   -4.1159   19.9557 C   0  0  0  0  0  0  0  0  0  0  0  0
   16.8767   -3.7551   20.5263 N   0  0  0  0  0  0  0  0  0  0  0  0
   16.6886   -1.0546   16.2689 H   0  0  0  0  0  0  0  0  0  0  0  0
   17.7158   -1.4598   17.6516 H   0  0  0  0  0  0  0  0  0  0  0  0
   16.6039   -0.1032   17.7642 H   0  0  0  0  0  0  0  0  0  0  0  0
   13.7871   -1.8585   18.4033 H   0  0  0  0  0  0  0  0  0  0  0  0
   11.9150   -1.9704   17.0919 H   0  0  0  0  0  0  0  0  0  0  0  0
   12.4050   -3.6726   17.0770 H   0  0  0  0  0  0  0  0  0  0  0  0
   12.4929   -0.9665   13.5509 H   0  0  0  0  0  0  0  0  0  0  0  0
   13.5386   -2.3725   13.4199 H   0  0  0  0  0  0  0  0  0  0  0  0
   14.9325   -1.1871   14.7981 H   0  0  0  0  0  0  0  0  0  0  0  0
   14.2048    0.5697   16.4443 H   0  0  0  0  0  0  0  0  0  0  0  0
   12.5263    0.2432   16.0084 H   0  0  0  0  0  0  0  0  0  0  0  0
   12.3933    2.5472   15.5588 H   0  0  0  0  0  0  0  0  0  0  0  0
   14.1082    2.9310   15.6804 H   0  0  0  0  0  0  0  0  0  0  0  0
   13.3397    4.5326   14.1450 H   0  0  0  0  0  0  0  0  0  0  0  0
   12.1363    3.4713   13.4492 H   0  0  0  0  0  0  0  0  0  0  0  0
   13.5629    2.4864   11.9434 H   0  0  0  0  0  0  0  0  0  0  0  0
   14.9264    4.9116   12.5134 H   0  0  0  0  0  0  0  0  0  0  0  0
   16.0236    2.2317   12.2938 H   0  0  0  0  0  0  0  0  0  0  0  0
   15.9112    3.1333   13.7881 H   0  0  0  0  0  0  0  0  0  0  0  0
   15.7978    0.9874   14.6153 H   0  0  0  0  0  0  0  0  0  0  0  0
   15.0123    0.3458   13.1660 H   0  0  0  0  0  0  0  0  0  0  0  0
   15.4461   -3.1431   15.4107 H   0  0  0  0  0  0  0  0  0  0  0  0
   16.7604   -3.6631   17.0997 H   0  0  0  0  0  0  0  0  0  0  0  0
   13.5118   -3.5813   20.7078 H   0  0  0  0  0  0  0  0  0  0  0  0
   14.1049   -2.5262   22.8473 H   0  0  0  0  0  0  0  0  0  0  0  0
   16.4677   -2.2343   23.5247 H   0  0  0  0  0  0  0  0  0  0  0  0
   18.1514   -4.6439   19.0181 H   0  0  0  0  0  0  0  0  0  0  0  0
  1  2  1  0
  2  3  1  0
  3  4  1  0
  4  5  1  0
  5  6  1  0
  6  7  1  0
  7  8  1  0
  8  9  1  0
  9 10  1  0
 10 11  1  0
 11 12  1  0
 12 13  1  0
 13 14  1  0
 13 15  1  0
 15 16  1  0
  4 17  1  0
 17 18  1  0
 18 19  1  0
 19 20  1  0
 20 21  2  0
 21 22  1  0
 22 23  2  0
 23 24  1  0
 24 25  2  0
 25 26  1  0
 26 27  2  0
 27 28  1  0
 18  2  1  0
 28 20  1  0
  8  4  1  0
 16 10  1  0
 28 24  1  0
  1 29  1  0
  1 30  1  0
  1 31  1  0
  3 32  1  0
  5 33  1  0
  5 34  1  0
  7 35  1  0
  7 36  1  0
  8 37  1  0
  9 38  1  0
  9 39  1  0
 11 40  1  0
 11 41  1  0
 12 42  1  0
 12 43  1  0
 13 44  1  0
 14 45  1  0
 15 46  1  0
 15 47  1  0
 16 48  1  0
 16 49  1  0
 17 50  1  0
 18 51  1  0
 21 52  1  0
 22 53  1  0
 23 54  1  0
 27 55  1  0
M  END
>  <Energy>  (537) 
47.431597558726068

>  <compound_id>  (537) 
3511

>  <target_id>  (537) 
1

>  <reference_id>  (537) 
55

>  <inspiration_ids>  (537) 
[120, 55]

>  <energy_score>  (537) 
-87.491118474807

>  <distance_score>  (537) 
1.243451155801388

>  <path>  (537) 
/opt/xchem-fragalysis-2/maxwin/BulkDock/SCRATCH/505734/C3511-P55/C3511-P55.minimised.mol

>  <scratch_subdir>  (537) 
/opt/xchem-fragalysis-2/maxwin/BulkDock/SCRATCH/505734/C3511-P55

>  <fragmenstein_runtime>  (537) 
3.525390625

>  <fragmenstein_outcome>  (537) 
too moved

>  <fragmenstein_mode>  (537) 
expansion

>  <fragmenstein_error>  (537) 


$$$$
C3512-P120
     RDKit          3D

 51 53  0  0  0  0  0  0  0  0999 V2000
   12.6324   -4.2109   16.6526 C   0  0  0  0  0  0  0  0  0  0  0  0
   12.5488   -2.8250   16.1630 C   0  0  0  0  0  0  0  0  0  0  0  0
   11.3355   -2.4829   15.0166 S   0  0  0  0  0  0  0  0  0  0  0  0
   11.6595   -0.8270   15.0843 C   0  0  0  0  0  0  0  0  0  0  0  0
   12.7226   -0.5287   15.9200 C   0  0  0  0  0  0  0  0  0  0  0  0
   13.1966    0.8662   16.1494 C   0  0  0  0  0  0  0  0  0  0  0  0
   13.5037    1.5451   14.8893 N   0  0  0  0  0  0  0  0  0  0  0  0
   13.7550    2.9663   15.1273 C   0  0  0  0  0  0  0  0  0  0  0  0
   13.7125    3.7285   13.8062 C   0  0  0  0  0  0  0  0  0  0  0  0
   14.2357    2.8983   12.6351 C   0  0  0  0  0  0  0  0  0  0  0  0
   14.8441    3.7767   11.6933 O   0  0  0  0  0  0  0  0  0  0  0  0
   15.2393    1.8553   13.1090 C   0  0  0  0  0  0  0  0  0  0  0  0
   14.6091    0.9176   14.1453 C   0  0  0  0  0  0  0  0  0  0  0  0
   13.2922   -1.7151   16.5060 C   0  0  0  0  0  0  0  0  0  0  0  0
   14.3873   -1.6881   17.3548 N   0  0  0  0  0  0  0  0  0  0  0  0
   15.3234   -2.8422   17.8404 C   0  0  0  0  0  0  0  0  0  0  0  0
   15.2614   -3.9973   17.6567 O   0  0  0  0  0  0  0  0  0  0  0  0
   16.3914   -2.2542   18.7184 C   0  0  0  0  0  0  0  0  0  0  0  0
   15.7392   -1.8726   20.3066 S   0  0  0  0  0  0  0  0  0  0  0  0
   14.6827   -0.8957   20.0978 O   0  0  0  0  0  0  0  0  0  0  0  0
   16.8736   -1.5284   21.1468 O   0  0  0  0  0  0  0  0  0  0  0  0
   15.0253   -3.3526   20.9534 C   0  0  0  0  0  0  0  0  0  0  0  0
   13.7880   -3.7690   20.4727 C   0  0  0  0  0  0  0  0  0  0  0  0
   13.2198   -4.9444   20.9417 C   0  0  0  0  0  0  0  0  0  0  0  0
   13.8705   -5.6927   21.9126 C   0  0  0  0  0  0  0  0  0  0  0  0
   15.0866   -5.2526   22.4296 C   0  0  0  0  0  0  0  0  0  0  0  0
   15.6682   -4.0763   21.9556 C   0  0  0  0  0  0  0  0  0  0  0  0
   13.4676   -4.6966   16.1613 H   0  0  0  0  0  0  0  0  0  0  0  0
   11.7318   -4.7850   16.4392 H   0  0  0  0  0  0  0  0  0  0  0  0
   12.7704   -4.2389   17.7330 H   0  0  0  0  0  0  0  0  0  0  0  0
   11.0702   -0.1392   14.4894 H   0  0  0  0  0  0  0  0  0  0  0  0
   14.0607    0.9064   16.8210 H   0  0  0  0  0  0  0  0  0  0  0  0
   12.3863    1.4022   16.6587 H   0  0  0  0  0  0  0  0  0  0  0  0
   12.9940    3.4022   15.7868 H   0  0  0  0  0  0  0  0  0  0  0  0
   14.7231    3.1131   15.6244 H   0  0  0  0  0  0  0  0  0  0  0  0
   14.2768    4.6637   13.9098 H   0  0  0  0  0  0  0  0  0  0  0  0
   12.6805    4.0278   13.5808 H   0  0  0  0  0  0  0  0  0  0  0  0
   13.3958    2.4042   12.1308 H   0  0  0  0  0  0  0  0  0  0  0  0
   15.1043    3.2391   10.9258 H   0  0  0  0  0  0  0  0  0  0  0  0
   15.6262    1.2794   12.2598 H   0  0  0  0  0  0  0  0  0  0  0  0
   16.1105    2.3638   13.5434 H   0  0  0  0  0  0  0  0  0  0  0  0
   15.4035    0.5734   14.8201 H   0  0  0  0  0  0  0  0  0  0  0  0
   14.2258    0.0342   13.6209 H   0  0  0  0  0  0  0  0  0  0  0  0
   14.6888   -0.8103   17.7660 H   0  0  0  0  0  0  0  0  0  0  0  0
   17.2092   -2.9707   18.8401 H   0  0  0  0  0  0  0  0  0  0  0  0
   16.7996   -1.3409   18.2767 H   0  0  0  0  0  0  0  0  0  0  0  0
   13.2503   -3.1944   19.7293 H   0  0  0  0  0  0  0  0  0  0  0  0
   12.2649   -5.2625   20.5400 H   0  0  0  0  0  0  0  0  0  0  0  0
   13.4287   -6.6125   22.2849 H   0  0  0  0  0  0  0  0  0  0  0  0
   15.5865   -5.8276   23.2057 H   0  0  0  0  0  0  0  0  0  0  0  0
   16.6172   -3.7426   22.3690 H   0  0  0  0  0  0  0  0  0  0  0  0
  1  2  1  0
  2  3  1  0
  3  4  1  0
  4  5  2  0
  5  6  1  0
  6  7  1  0
  7  8  1  0
  8  9  1  0
  9 10  1  0
 10 11  1  0
 10 12  1  0
 12 13  1  0
  5 14  1  0
 14 15  1  0
 15 16  1  0
 16 17  2  0
 16 18  1  0
 18 19  1  0
 19 20  2  0
 19 21  2  0
 19 22  1  0
 22 23  2  0
 23 24  1  0
 24 25  2  0
 25 26  1  0
 26 27  2  0
 14  2  2  0
 27 22  1  0
 13  7  1  0
  1 28  1  0
  1 29  1  0
  1 30  1  0
  4 31  1  0
  6 32  1  0
  6 33  1  0
  8 34  1  0
  8 35  1  0
  9 36  1  0
  9 37  1  0
 10 38  1  0
 11 39  1  0
 12 40  1  0
 12 41  1  0
 13 42  1  0
 13 43  1  0
 15 44  1  0
 18 45  1  0
 18 46  1  0
 23 47  1  0
 24 48  1  0
 25 49  1  0
 26 50  1  0
 27 51  1  0
M  END
>  <Energy>  (538) 
36.676290559072633

>  <compound_id>  (538) 
3512

>  <target_id>  (538) 
1

>  <reference_id>  (538) 
120

>  <inspiration_ids>  (538) 
[120, 60]

>  <energy_score>  (538) 
-64.67592512517527

>  <distance_score>  (538) 
1.2600974807243406

>  <path>  (538) 
/opt/xchem-fragalysis-2/maxwin/BulkDock/SCRATCH/505734/C3512-P120/C3512-P120.minimised.mol

>  <scratch_subdir>  (538) 
/opt/xchem-fragalysis-2/maxwin/BulkDock/SCRATCH/505734/C3512-P120

>  <fragmenstein_runtime>  (538) 
3.3844082355499268

>  <fragmenstein_outcome>  (538) 
too moved

>  <fragmenstein_mode>  (538) 
expansion

>  <fragmenstein_error>  (538) 


$$$$
C3512-P60
     RDKit          3D

 51 53  0  0  0  0  0  0  0  0999 V2000
   12.5195   -4.4161   16.7743 C   0  0  0  0  0  0  0  0  0  0  0  0
   12.5466   -3.0914   16.1142 C   0  0  0  0  0  0  0  0  0  0  0  0
   11.2792   -2.6563   15.0753 S   0  0  0  0  0  0  0  0  0  0  0  0
   12.0655   -1.2292   14.6378 C   0  0  0  0  0  0  0  0  0  0  0  0
   13.3057   -1.0890   15.2443 C   0  0  0  0  0  0  0  0  0  0  0  0
   14.2757   -0.0812   14.7424 C   0  0  0  0  0  0  0  0  0  0  0  0
   14.1986    1.2150   15.4108 N   0  0  0  0  0  0  0  0  0  0  0  0
   13.0295    2.0296   15.0906 C   0  0  0  0  0  0  0  0  0  0  0  0
   12.9733    2.5218   13.6403 C   0  0  0  0  0  0  0  0  0  0  0  0
   14.3573    2.7714   13.0428 C   0  0  0  0  0  0  0  0  0  0  0  0
   14.2847    3.8507   12.1139 O   0  0  0  0  0  0  0  0  0  0  0  0
   15.3691    3.0798   14.1308 C   0  0  0  0  0  0  0  0  0  0  0  0
   15.4418    1.9710   15.1854 C   0  0  0  0  0  0  0  0  0  0  0  0
   13.5392   -2.1322   16.2053 C   0  0  0  0  0  0  0  0  0  0  0  0
   14.5625   -2.3739   17.1080 N   0  0  0  0  0  0  0  0  0  0  0  0
   15.7555   -1.4711   17.5531 C   0  0  0  0  0  0  0  0  0  0  0  0
   16.0955   -0.4205   17.1675 O   0  0  0  0  0  0  0  0  0  0  0  0
   16.4819   -2.2172   18.6473 C   0  0  0  0  0  0  0  0  0  0  0  0
   15.8146   -1.8036   20.2421 S   0  0  0  0  0  0  0  0  0  0  0  0
   14.7115   -0.8757   20.0995 O   0  0  0  0  0  0  0  0  0  0  0  0
   16.9318   -1.5065   21.1211 O   0  0  0  0  0  0  0  0  0  0  0  0
   15.1097   -3.3297   20.8228 C   0  0  0  0  0  0  0  0  0  0  0  0
   13.8445   -3.6974   20.3720 C   0  0  0  0  0  0  0  0  0  0  0  0
   13.2750   -4.8890   20.8061 C   0  0  0  0  0  0  0  0  0  0  0  0
   13.9567   -5.7028   21.7013 C   0  0  0  0  0  0  0  0  0  0  0  0
   15.2033   -5.3128   22.1843 C   0  0  0  0  0  0  0  0  0  0  0  0
   15.7837   -4.1198   21.7522 C   0  0  0  0  0  0  0  0  0  0  0  0
   13.4113   -4.9891   16.5074 H   0  0  0  0  0  0  0  0  0  0  0  0
   11.6518   -4.9962   16.4760 H   0  0  0  0  0  0  0  0  0  0  0  0
   12.5141   -4.3073   17.8567 H   0  0  0  0  0  0  0  0  0  0  0  0
   11.6207   -0.5957   13.8806 H   0  0  0  0  0  0  0  0  0  0  0  0
   14.1584    0.0236   13.6563 H   0  0  0  0  0  0  0  0  0  0  0  0
   15.2724   -0.5254   14.8561 H   0  0  0  0  0  0  0  0  0  0  0  0
   12.0988    1.5090   15.3419 H   0  0  0  0  0  0  0  0  0  0  0  0
   13.0348    2.9049   15.7550 H   0  0  0  0  0  0  0  0  0  0  0  0
   12.3595    3.4301   13.5933 H   0  0  0  0  0  0  0  0  0  0  0  0
   12.4548    1.7834   13.0155 H   0  0  0  0  0  0  0  0  0  0  0  0
   14.6810    1.8902   12.4773 H   0  0  0  0  0  0  0  0  0  0  0  0
   15.1823    4.0036   11.7725 H   0  0  0  0  0  0  0  0  0  0  0  0
   16.3608    3.2492   13.6940 H   0  0  0  0  0  0  0  0  0  0  0  0
   15.0988    4.0299   14.6118 H   0  0  0  0  0  0  0  0  0  0  0  0
   15.7212    2.4382   16.1387 H   0  0  0  0  0  0  0  0  0  0  0  0
   16.2867    1.3124   14.9468 H   0  0  0  0  0  0  0  0  0  0  0  0
   14.5096   -3.1834   17.7076 H   0  0  0  0  0  0  0  0  0  0  0  0
   16.4586   -3.2995   18.4983 H   0  0  0  0  0  0  0  0  0  0  0  0
   17.5343   -1.9149   18.6352 H   0  0  0  0  0  0  0  0  0  0  0  0
   13.2735   -3.0483   19.7173 H   0  0  0  0  0  0  0  0  0  0  0  0
   12.2836   -5.1636   20.4634 H   0  0  0  0  0  0  0  0  0  0  0  0
   13.5082   -6.6269   22.0553 H   0  0  0  0  0  0  0  0  0  0  0  0
   15.7230   -5.9331   22.9115 H   0  0  0  0  0  0  0  0  0  0  0  0
   16.7504   -3.8172   22.1494 H   0  0  0  0  0  0  0  0  0  0  0  0
  1  2  1  0
  2  3  1  0
  3  4  1  0
  4  5  2  0
  5  6  1  0
  6  7  1  0
  7  8  1  0
  8  9  1  0
  9 10  1  0
 10 11  1  0
 10 12  1  0
 12 13  1  0
  5 14  1  0
 14 15  1  0
 15 16  1  0
 16 17  2  0
 16 18  1  0
 18 19  1  0
 19 20  2  0
 19 21  2  0
 19 22  1  0
 22 23  2  0
 23 24  1  0
 24 25  2  0
 25 26  1  0
 26 27  2  0
 14  2  2  0
 27 22  1  0
 13  7  1  0
  1 28  1  0
  1 29  1  0
  1 30  1  0
  4 31  1  0
  6 32  1  0
  6 33  1  0
  8 34  1  0
  8 35  1  0
  9 36  1  0
  9 37  1  0
 10 38  1  0
 11 39  1  0
 12 40  1  0
 12 41  1  0
 13 42  1  0
 13 43  1  0
 15 44  1  0
 18 45  1  0
 18 46  1  0
 23 47  1  0
 24 48  1  0
 25 49  1  0
 26 50  1  0
 27 51  1  0
M  END
>  <Energy>  (539) 
56.37616657757733

>  <compound_id>  (539) 
3512

>  <target_id>  (539) 
1

>  <reference_id>  (539) 
60

>  <inspiration_ids>  (539) 
[120, 60]

>  <energy_score>  (539) 
-44.9760491066676

>  <distance_score>  (539) 
1.8632198438168956

>  <path>  (539) 
/opt/xchem-fragalysis-2/maxwin/BulkDock/SCRATCH/505734/C3512-P60/C3512-P60.minimised.mol

>  <scratch_subdir>  (539) 
/opt/xchem-fragalysis-2/maxwin/BulkDock/SCRATCH/505734/C3512-P60

>  <fragmenstein_runtime>  (539) 
4.061577558517456

>  <fragmenstein_outcome>  (539) 
too moved

>  <fragmenstein_mode>  (539) 
expansion

>  <fragmenstein_error>  (539) 


$$$$
C3513-P120
     RDKit          3D

 53 55  0  0  0  0  0  0  0  0999 V2000
   15.4049   -1.5316   19.6131 C   0  0  0  0  0  0  0  0  0  0  0  0
   14.5323   -2.1265   18.6667 O   0  0  0  0  0  0  0  0  0  0  0  0
   14.8620   -3.4765   18.3432 C   0  0  0  0  0  0  0  0  0  0  0  0
   16.0387   -3.5851   17.3661 C   0  0  0  0  0  0  0  0  0  0  0  0
   15.6482   -3.4986   15.9525 N   0  0  0  0  0  0  0  0  0  0  0  0
   16.8395   -3.7080   15.0855 C   0  0  0  0  0  0  0  0  0  0  0  0
   16.7845   -2.7123   13.8882 C   0  0  0  0  0  0  0  0  0  0  0  0
   17.9873   -1.1877   14.2741 Br  0  0  0  0  0  0  0  0  0  0  0  0
   15.3611   -2.1813   13.6603 C   0  0  0  0  0  0  0  0  0  0  0  0
   14.6386   -2.3242   15.2878 S   0  0  0  0  0  0  0  0  0  0  0  0
   12.8949   -2.5293   15.2727 C   0  0  0  0  0  0  0  0  0  0  0  0
   12.3786   -1.0983   15.3783 C   0  0  0  0  0  0  0  0  0  0  0  0
   13.3201   -0.3355   16.3290 C   0  0  0  0  0  0  0  0  0  0  0  0
   13.1392    1.1827   16.3025 C   0  0  0  0  0  0  0  0  0  0  0  0
   13.5187    1.7792   15.0182 N   0  0  0  0  0  0  0  0  0  0  0  0
   12.5151    2.7413   14.5486 C   0  0  0  0  0  0  0  0  0  0  0  0
   13.0383    3.6472   13.4314 C   0  0  0  0  0  0  0  0  0  0  0  0
   14.1558    2.9697   12.6503 C   0  0  0  0  0  0  0  0  0  0  0  0
   14.6342    3.8669   11.6520 O   0  0  0  0  0  0  0  0  0  0  0  0
   15.3073    2.5580   13.5718 C   0  0  0  0  0  0  0  0  0  0  0  0
   14.8455    2.3966   15.0206 C   0  0  0  0  0  0  0  0  0  0  0  0
   14.7448   -0.7390   15.9860 C   0  0  0  0  0  0  0  0  0  0  0  0
   15.0363   -0.5246   19.8280 H   0  0  0  0  0  0  0  0  0  0  0  0
   16.4218   -1.4455   19.2232 H   0  0  0  0  0  0  0  0  0  0  0  0
   15.4069   -2.1032   20.5461 H   0  0  0  0  0  0  0  0  0  0  0  0
   15.0886   -4.0229   19.2669 H   0  0  0  0  0  0  0  0  0  0  0  0
   13.9634   -3.9383   17.9236 H   0  0  0  0  0  0  0  0  0  0  0  0
   16.7864   -2.8155   17.5819 H   0  0  0  0  0  0  0  0  0  0  0  0
   16.5111   -4.5616   17.5267 H   0  0  0  0  0  0  0  0  0  0  0  0
   16.8004   -4.7388   14.7268 H   0  0  0  0  0  0  0  0  0  0  0  0
   17.7838   -3.6108   15.6348 H   0  0  0  0  0  0  0  0  0  0  0  0
   17.2155   -3.1332   12.9765 H   0  0  0  0  0  0  0  0  0  0  0  0
   14.7961   -2.8083   12.9718 H   0  0  0  0  0  0  0  0  0  0  0  0
   15.3096   -1.1508   13.3042 H   0  0  0  0  0  0  0  0  0  0  0  0
   12.6049   -3.1350   16.1334 H   0  0  0  0  0  0  0  0  0  0  0  0
   12.5455   -2.9852   14.3479 H   0  0  0  0  0  0  0  0  0  0  0  0
   12.3919   -0.6399   14.3814 H   0  0  0  0  0  0  0  0  0  0  0  0
   11.3424   -1.0767   15.7313 H   0  0  0  0  0  0  0  0  0  0  0  0
   13.0917   -0.6756   17.3418 H   0  0  0  0  0  0  0  0  0  0  0  0
   12.0808    1.3828   16.5081 H   0  0  0  0  0  0  0  0  0  0  0  0
   13.6936    1.6450   17.1297 H   0  0  0  0  0  0  0  0  0  0  0  0
   12.1575    3.3829   15.3648 H   0  0  0  0  0  0  0  0  0  0  0  0
   11.6489    2.1809   14.1760 H   0  0  0  0  0  0  0  0  0  0  0  0
   13.4120    4.5895   13.8547 H   0  0  0  0  0  0  0  0  0  0  0  0
   12.2205    3.9328   12.7586 H   0  0  0  0  0  0  0  0  0  0  0  0
   13.7551    2.0878   12.1351 H   0  0  0  0  0  0  0  0  0  0  0  0
   15.3458    3.4076   11.1740 H   0  0  0  0  0  0  0  0  0  0  0  0
   15.7267    1.6128   13.2041 H   0  0  0  0  0  0  0  0  0  0  0  0
   16.1247    3.2883   13.5316 H   0  0  0  0  0  0  0  0  0  0  0  0
   15.5990    1.8206   15.5662 H   0  0  0  0  0  0  0  0  0  0  0  0
   14.8155    3.3729   15.5242 H   0  0  0  0  0  0  0  0  0  0  0  0
   15.4151   -0.7232   16.8438 H   0  0  0  0  0  0  0  0  0  0  0  0
   15.1923   -0.1250   15.2121 H   0  0  0  0  0  0  0  0  0  0  0  0
  1  2  1  0
  2  3  1  0
  3  4  1  0
  4  5  1  0
  5  6  1  0
  6  7  1  0
  7  8  1  0
  7  9  1  0
  9 10  1  0
 10 11  1  0
 11 12  1  0
 12 13  1  0
 13 14  1  0
 14 15  1  0
 15 16  1  0
 16 17  1  0
 17 18  1  0
 18 19  1  0
 18 20  1  0
 20 21  1  0
 13 22  1  0
 10  5  1  0
 21 15  1  0
 22 10  1  0
  1 23  1  0
  1 24  1  0
  1 25  1  0
  3 26  1  0
  3 27  1  0
  4 28  1  0
  4 29  1  0
  6 30  1  0
  6 31  1  0
  7 32  1  0
  9 33  1  0
  9 34  1  0
 11 35  1  0
 11 36  1  0
 12 37  1  0
 12 38  1  0
 13 39  1  0
 14 40  1  0
 14 41  1  0
 16 42  1  0
 16 43  1  0
 17 44  1  0
 17 45  1  0
 18 46  1  0
 19 47  1  0
 20 48  1  0
 20 49  1  0
 21 50  1  0
 21 51  1  0
 22 52  1  0
 22 53  1  0
M  END
>  <Energy>  (540) 
94.858718366564815

>  <compound_id>  (540) 
3513

>  <target_id>  (540) 
1

>  <reference_id>  (540) 
120

>  <inspiration_ids>  (540) 
[120, 61]

>  <energy_score>  (540) 
-58.614726716715495

>  <distance_score>  (540) 
2.090794368069748

>  <path>  (540) 
/opt/xchem-fragalysis-2/maxwin/BulkDock/SCRATCH/505734/C3513-P120/C3513-P120.minimised.mol

>  <scratch_subdir>  (540) 
/opt/xchem-fragalysis-2/maxwin/BulkDock/SCRATCH/505734/C3513-P120

>  <fragmenstein_runtime>  (540) 
4.015919923782349

>  <fragmenstein_outcome>  (540) 
too moved

>  <fragmenstein_mode>  (540) 
expansion

>  <fragmenstein_error>  (540) 


$$$$
C3513-P61
     RDKit          3D

 53 55  0  0  0  0  0  0  0  0999 V2000
   15.5490   -1.8952   19.4902 C   0  0  0  0  0  0  0  0  0  0  0  0
   14.6680   -2.5018   18.5588 O   0  0  0  0  0  0  0  0  0  0  0  0
   15.1182   -3.7601   18.0531 C   0  0  0  0  0  0  0  0  0  0  0  0
   16.2334   -3.6403   17.0022 C   0  0  0  0  0  0  0  0  0  0  0  0
   15.7714   -3.3771   15.6326 N   0  0  0  0  0  0  0  0  0  0  0  0
   16.8971   -3.3993   14.6701 C   0  0  0  0  0  0  0  0  0  0  0  0
   16.5969   -2.4057   13.5031 C   0  0  0  0  0  0  0  0  0  0  0  0
   17.7707   -0.8246   13.7015 Br  0  0  0  0  0  0  0  0  0  0  0  0
   15.1343   -1.9288   13.4970 C   0  0  0  0  0  0  0  0  0  0  0  0
   14.6070   -2.2660   15.1628 S   0  0  0  0  0  0  0  0  0  0  0  0
   12.9230   -2.7260   15.3105 C   0  0  0  0  0  0  0  0  0  0  0  0
   12.3933   -1.7923   16.3903 C   0  0  0  0  0  0  0  0  0  0  0  0
   13.1367   -0.4379   16.2847 C   0  0  0  0  0  0  0  0  0  0  0  0
   12.4567    0.4218   15.2135 C   0  0  0  0  0  0  0  0  0  0  0  0
   13.2761    1.3581   14.4527 N   0  0  0  0  0  0  0  0  0  0  0  0
   12.4514    2.0177   13.4289 C   0  0  0  0  0  0  0  0  0  0  0  0
   13.1254    3.2390   12.8109 C   0  0  0  0  0  0  0  0  0  0  0  0
   14.6317    3.0679   12.8406 C   0  0  0  0  0  0  0  0  0  0  0  0
   15.2346    4.2003   12.2263 O   0  0  0  0  0  0  0  0  0  0  0  0
   15.1234    2.9088   14.2832 C   0  0  0  0  0  0  0  0  0  0  0  0
   14.0376    2.3385   15.2095 C   0  0  0  0  0  0  0  0  0  0  0  0
   14.6024   -0.7578   16.0215 C   0  0  0  0  0  0  0  0  0  0  0  0
   16.4982   -1.6223   19.0231 H   0  0  0  0  0  0  0  0  0  0  0  0
   15.7259   -2.5599   20.3410 H   0  0  0  0  0  0  0  0  0  0  0  0
   15.0759   -0.9811   19.8596 H   0  0  0  0  0  0  0  0  0  0  0  0
   15.4647   -4.3752   18.8927 H   0  0  0  0  0  0  0  0  0  0  0  0
   14.2517   -4.2795   17.6305 H   0  0  0  0  0  0  0  0  0  0  0  0
   16.9460   -2.8631   17.2948 H   0  0  0  0  0  0  0  0  0  0  0  0
   16.7695   -4.5974   16.9908 H   0  0  0  0  0  0  0  0  0  0  0  0
   17.8530   -3.1650   15.1532 H   0  0  0  0  0  0  0  0  0  0  0  0
   16.9846   -4.4171   14.2829 H   0  0  0  0  0  0  0  0  0  0  0  0
   16.8888   -2.8150   12.5320 H   0  0  0  0  0  0  0  0  0  0  0  0
   14.5221   -2.5140   12.8105 H   0  0  0  0  0  0  0  0  0  0  0  0
   14.9966   -0.8709   13.2662 H   0  0  0  0  0  0  0  0  0  0  0  0
   12.4299   -2.5684   14.3486 H   0  0  0  0  0  0  0  0  0  0  0  0
   12.8380   -3.7688   15.6160 H   0  0  0  0  0  0  0  0  0  0  0  0
   11.3099   -1.6758   16.2942 H   0  0  0  0  0  0  0  0  0  0  0  0
   12.5863   -2.2436   17.3640 H   0  0  0  0  0  0  0  0  0  0  0  0
   13.0703    0.1057   17.2343 H   0  0  0  0  0  0  0  0  0  0  0  0
   11.9790   -0.2441   14.4824 H   0  0  0  0  0  0  0  0  0  0  0  0
   11.6283    0.9574   15.6990 H   0  0  0  0  0  0  0  0  0  0  0  0
   11.4803    2.3347   13.8317 H   0  0  0  0  0  0  0  0  0  0  0  0
   12.2441    1.2906   12.6333 H   0  0  0  0  0  0  0  0  0  0  0  0
   12.8457    4.1500   13.3568 H   0  0  0  0  0  0  0  0  0  0  0  0
   12.7731    3.3902   11.7834 H   0  0  0  0  0  0  0  0  0  0  0  0
   14.9129    2.1870   12.2497 H   0  0  0  0  0  0  0  0  0  0  0  0
   16.1971    4.0624   12.2615 H   0  0  0  0  0  0  0  0  0  0  0  0
   15.9989    2.2472   14.2807 H   0  0  0  0  0  0  0  0  0  0  0  0
   15.4717    3.8682   14.6849 H   0  0  0  0  0  0  0  0  0  0  0  0
   14.5265    1.9268   16.0976 H   0  0  0  0  0  0  0  0  0  0  0  0
   13.3845    3.1404   15.5790 H   0  0  0  0  0  0  0  0  0  0  0  0
   15.1597   -0.8751   16.9474 H   0  0  0  0  0  0  0  0  0  0  0  0
   15.1491   -0.0254   15.4325 H   0  0  0  0  0  0  0  0  0  0  0  0
  1  2  1  0
  2  3  1  0
  3  4  1  0
  4  5  1  0
  5  6  1  0
  6  7  1  0
  7  8  1  0
  7  9  1  0
  9 10  1  0
 10 11  1  0
 11 12  1  0
 12 13  1  0
 13 14  1  0
 14 15  1  0
 15 16  1  0
 16 17  1  0
 17 18  1  0
 18 19  1  0
 18 20  1  0
 20 21  1  0
 13 22  1  0
 10  5  1  0
 21 15  1  0
 22 10  1  0
  1 23  1  0
  1 24  1  0
  1 25  1  0
  3 26  1  0
  3 27  1  0
  4 28  1  0
  4 29  1  0
  6 30  1  0
  6 31  1  0
  7 32  1  0
  9 33  1  0
  9 34  1  0
 11 35  1  0
 11 36  1  0
 12 37  1  0
 12 38  1  0
 13 39  1  0
 14 40  1  0
 14 41  1  0
 16 42  1  0
 16 43  1  0
 17 44  1  0
 17 45  1  0
 18 46  1  0
 19 47  1  0
 20 48  1  0
 20 49  1  0
 21 50  1  0
 21 51  1  0
 22 52  1  0
 22 53  1  0
M  END
>  <Energy>  (541) 
95.430745214655403

>  <compound_id>  (541) 
3513

>  <target_id>  (541) 
1

>  <reference_id>  (541) 
61

>  <inspiration_ids>  (541) 
[120, 61]

>  <energy_score>  (541) 
-58.04269986862403

>  <distance_score>  (541) 
2.260651269364736

>  <path>  (541) 
/opt/xchem-fragalysis-2/maxwin/BulkDock/SCRATCH/505734/C3513-P61/C3513-P61.minimised.mol

>  <scratch_subdir>  (541) 
/opt/xchem-fragalysis-2/maxwin/BulkDock/SCRATCH/505734/C3513-P61

>  <fragmenstein_runtime>  (541) 
3.042320728302002

>  <fragmenstein_outcome>  (541) 
too moved

>  <fragmenstein_mode>  (541) 
expansion

>  <fragmenstein_error>  (541) 


$$$$
C3518-P120
     RDKit          3D

 62 65  0  0  0  0  0  0  0  0999 V2000
   20.0845   -0.4867   12.8161 C   0  0  0  0  0  0  0  0  0  0  0  0
   19.4195   -1.6882   13.3899 N   0  0  0  0  0  0  0  0  0  0  0  0
   19.0466   -1.9937   14.7353 C   0  0  0  0  0  0  0  0  0  0  0  0
   19.0926   -1.3216   15.7303 O   0  0  0  0  0  0  0  0  0  0  0  0
   18.6330   -3.4603   14.7945 C   0  0  0  0  0  0  0  0  0  0  0  0
   17.6672   -3.7140   15.8348 N   0  0  0  0  0  0  0  0  0  0  0  0
   17.9137   -4.1655   17.0925 C   0  0  0  0  0  0  0  0  0  0  0  0
   16.7721   -4.3639   17.7108 N   0  0  0  0  0  0  0  0  0  0  0  0
   15.7638   -4.0256   16.8397 N   0  0  0  0  0  0  0  0  0  0  0  0
   16.3184   -3.6253   15.7193 C   0  0  0  0  0  0  0  0  0  0  0  0
   18.1766   -1.1001   12.6019 C   0  0  0  0  0  0  0  0  0  0  0  0
   17.5312    0.2760   13.0757 C   0  0  0  0  0  0  0  0  0  0  0  0
   16.0984    0.4276   12.7496 N   0  0  0  0  0  0  0  0  0  0  0  0
   15.5943    1.7999   12.8876 C   0  0  0  0  0  0  0  0  0  0  0  0
   16.1639    2.5634   11.8378 O   0  0  0  0  0  0  0  0  0  0  0  0
   14.0645    1.8079   12.6742 C   0  0  0  0  0  0  0  0  0  0  0  0
   13.2758    1.7135   13.9820 C   0  0  0  0  0  0  0  0  0  0  0  0
   14.0463    0.9961   14.9983 N   0  0  0  0  0  0  0  0  0  0  0  0
   13.2297    0.6311   16.1602 C   0  0  0  0  0  0  0  0  0  0  0  0
   12.7062   -0.7610   15.9561 C   0  0  0  0  0  0  0  0  0  0  0  0
   13.2617   -1.9216   16.5924 C   0  0  0  0  0  0  0  0  0  0  0  0
   12.6116   -3.0851   16.2508 C   0  0  0  0  0  0  0  0  0  0  0  0
   11.3599   -2.8027   15.1333 S   0  0  0  0  0  0  0  0  0  0  0  0
   11.6327   -1.1192   15.1604 C   0  0  0  0  0  0  0  0  0  0  0  0
   15.2275    1.7735   15.4019 C   0  0  0  0  0  0  0  0  0  0  0  0
   15.8969    2.4870   14.2236 C   0  0  0  0  0  0  0  0  0  0  0  0
   18.1769   -1.4415   11.0956 C   0  0  0  0  0  0  0  0  0  0  0  0
   18.5267   -2.7377   10.6774 C   0  0  0  0  0  0  0  0  0  0  0  0
   18.6362   -3.0421    9.3218 C   0  0  0  0  0  0  0  0  0  0  0  0
   18.3826   -2.0626    8.3660 C   0  0  0  0  0  0  0  0  0  0  0  0
   17.9897   -0.7880    8.7597 C   0  0  0  0  0  0  0  0  0  0  0  0
   17.8879   -0.4799   10.1153 C   0  0  0  0  0  0  0  0  0  0  0  0
   21.1347   -0.6639   13.0988 H   0  0  0  0  0  0  0  0  0  0  0  0
   19.8866    0.4393   13.3677 H   0  0  0  0  0  0  0  0  0  0  0  0
   20.1692   -0.3862   11.7298 H   0  0  0  0  0  0  0  0  0  0  0  0
   18.1979   -3.8003   13.8498 H   0  0  0  0  0  0  0  0  0  0  0  0
   19.5239   -4.0652   14.9965 H   0  0  0  0  0  0  0  0  0  0  0  0
   18.9001   -4.3327   17.5014 H   0  0  0  0  0  0  0  0  0  0  0  0
   15.8012   -3.2869   14.8325 H   0  0  0  0  0  0  0  0  0  0  0  0
   17.3926   -1.7989   12.9445 H   0  0  0  0  0  0  0  0  0  0  0  0
   17.6544    0.3632   14.1604 H   0  0  0  0  0  0  0  0  0  0  0  0
   18.0790    1.1039   12.6111 H   0  0  0  0  0  0  0  0  0  0  0  0
   15.5508   -0.1473   13.4020 H   0  0  0  0  0  0  0  0  0  0  0  0
   16.0225    2.0074   11.0539 H   0  0  0  0  0  0  0  0  0  0  0  0
   13.7759    0.9823   12.0082 H   0  0  0  0  0  0  0  0  0  0  0  0
   13.7569    2.7183   12.1422 H   0  0  0  0  0  0  0  0  0  0  0  0
   13.0178    2.7209   14.3365 H   0  0  0  0  0  0  0  0  0  0  0  0
   12.3261    1.2177   13.7580 H   0  0  0  0  0  0  0  0  0  0  0  0
   12.4107    1.3410   16.3302 H   0  0  0  0  0  0  0  0  0  0  0  0
   13.8300    0.6296   17.0804 H   0  0  0  0  0  0  0  0  0  0  0  0
   14.1043   -1.9057   17.2754 H   0  0  0  0  0  0  0  0  0  0  0  0
   12.8309   -4.0880   16.5931 H   0  0  0  0  0  0  0  0  0  0  0  0
   11.0000   -0.4829   14.5569 H   0  0  0  0  0  0  0  0  0  0  0  0
   14.9707    2.5286   16.1567 H   0  0  0  0  0  0  0  0  0  0  0  0
   15.9489    1.0899   15.8656 H   0  0  0  0  0  0  0  0  0  0  0  0
   16.9747    2.5907   14.3973 H   0  0  0  0  0  0  0  0  0  0  0  0
   15.5287    3.5221   14.1730 H   0  0  0  0  0  0  0  0  0  0  0  0
   18.7529   -3.5108   11.4067 H   0  0  0  0  0  0  0  0  0  0  0  0
   18.9243   -4.0438    9.0090 H   0  0  0  0  0  0  0  0  0  0  0  0
   18.4963   -2.2997    7.3106 H   0  0  0  0  0  0  0  0  0  0  0  0
   17.7908   -0.0231    8.0131 H   0  0  0  0  0  0  0  0  0  0  0  0
   17.6180    0.5353   10.3883 H   0  0  0  0  0  0  0  0  0  0  0  0
  1  2  1  0
  2  3  1  0
  3  4  2  0
  3  5  1  0
  5  6  1  0
  6  7  1  0
  7  8  2  0
  8  9  1  0
  9 10  2  0
  2 11  1  0
 11 12  1  0
 12 13  1  0
 13 14  1  0
 14 15  1  0
 14 16  1  0
 16 17  1  0
 17 18  1  0
 18 19  1  0
 19 20  1  0
 20 21  1  0
 21 22  2  0
 22 23  1  0
 23 24  1  0
 18 25  1  0
 25 26  1  0
 11 27  1  0
 27 28  2  0
 28 29  1  0
 29 30  2  0
 30 31  1  0
 31 32  2  0
 10  6  1  0
 26 14  1  0
 32 27  1  0
 24 20  2  0
  1 33  1  0
  1 34  1  0
  1 35  1  0
  5 36  1  0
  5 37  1  0
  7 38  1  0
 10 39  1  0
 11 40  1  0
 12 41  1  0
 12 42  1  0
 13 43  1  0
 15 44  1  0
 16 45  1  0
 16 46  1  0
 17 47  1  0
 17 48  1  0
 19 49  1  0
 19 50  1  0
 21 51  1  0
 22 52  1  0
 24 53  1  0
 25 54  1  0
 25 55  1  0
 26 56  1  0
 26 57  1  0
 28 58  1  0
 29 59  1  0
 30 60  1  0
 31 61  1  0
 32 62  1  0
M  END
>  <Energy>  (542) 
85.820027712473319

>  <compound_id>  (542) 
3518

>  <target_id>  (542) 
1

>  <reference_id>  (542) 
120

>  <inspiration_ids>  (542) 
[120, 83]

>  <energy_score>  (542) 
-16.745846843350336

>  <distance_score>  (542) 
2.393667176024808

>  <path>  (542) 
/opt/xchem-fragalysis-2/maxwin/BulkDock/SCRATCH/505734/C3518-P120/C3518-P120.minimised.mol

>  <scratch_subdir>  (542) 
/opt/xchem-fragalysis-2/maxwin/BulkDock/SCRATCH/505734/C3518-P120

>  <fragmenstein_runtime>  (542) 
6.7393410205841064

>  <fragmenstein_outcome>  (542) 
too moved

>  <fragmenstein_mode>  (542) 
expansion

>  <fragmenstein_error>  (542) 


$$$$
C3518-P83
     RDKit          3D

 62 65  0  0  0  0  0  0  0  0999 V2000
   20.4148    0.2320   12.3687 C   0  0  0  0  0  0  0  0  0  0  0  0
   19.9049   -0.1777   13.6980 N   0  0  0  0  0  0  0  0  0  0  0  0
   19.8341    0.5406   14.9307 C   0  0  0  0  0  0  0  0  0  0  0  0
   20.0862    1.6892   15.1816 O   0  0  0  0  0  0  0  0  0  0  0  0
   19.4617   -0.4262   16.0530 C   0  0  0  0  0  0  0  0  0  0  0  0
   18.2605   -0.0553   16.7623 N   0  0  0  0  0  0  0  0  0  0  0  0
   17.2068   -0.8689   17.0400 C   0  0  0  0  0  0  0  0  0  0  0  0
   16.3266   -0.2081   17.7551 N   0  0  0  0  0  0  0  0  0  0  0  0
   16.8208    1.0601   17.9602 N   0  0  0  0  0  0  0  0  0  0  0  0
   17.9951    1.1289   17.3770 C   0  0  0  0  0  0  0  0  0  0  0  0
   18.5196   -0.0961   12.9426 C   0  0  0  0  0  0  0  0  0  0  0  0
   17.9545    1.2614   12.3367 C   0  0  0  0  0  0  0  0  0  0  0  0
   16.5237    1.2694   11.9682 N   0  0  0  0  0  0  0  0  0  0  0  0
   15.6504    2.1145   12.7757 C   0  0  0  0  0  0  0  0  0  0  0  0
   16.1185    3.4451   12.6436 O   0  0  0  0  0  0  0  0  0  0  0  0
   14.2261    2.0745   12.1804 C   0  0  0  0  0  0  0  0  0  0  0  0
   13.1771    1.5770   13.1743 C   0  0  0  0  0  0  0  0  0  0  0  0
   13.5945    0.3123   13.7887 N   0  0  0  0  0  0  0  0  0  0  0  0
   12.5142   -0.1891   14.6556 C   0  0  0  0  0  0  0  0  0  0  0  0
   12.7069   -1.6270   15.0498 C   0  0  0  0  0  0  0  0  0  0  0  0
   13.4896   -2.1066   16.1561 C   0  0  0  0  0  0  0  0  0  0  0  0
   13.3757   -3.4646   16.3502 C   0  0  0  0  0  0  0  0  0  0  0  0
   12.3438   -4.1797   15.2010 S   0  0  0  0  0  0  0  0  0  0  0  0
   12.0697   -2.6853   14.4291 C   0  0  0  0  0  0  0  0  0  0  0  0
   14.8703    0.4429   14.5108 C   0  0  0  0  0  0  0  0  0  0  0  0
   15.6160    1.7524   14.2579 C   0  0  0  0  0  0  0  0  0  0  0  0
   18.1353   -1.3896   12.2055 C   0  0  0  0  0  0  0  0  0  0  0  0
   17.9230   -2.5597   12.9487 C   0  0  0  0  0  0  0  0  0  0  0  0
   17.5446   -3.7378   12.3198 C   0  0  0  0  0  0  0  0  0  0  0  0
   17.3914   -3.7713   10.9385 C   0  0  0  0  0  0  0  0  0  0  0  0
   17.6082   -2.6236   10.1849 C   0  0  0  0  0  0  0  0  0  0  0  0
   17.9647   -1.4348   10.8127 C   0  0  0  0  0  0  0  0  0  0  0  0
   20.3384    1.3081   12.1762 H   0  0  0  0  0  0  0  0  0  0  0  0
   21.5033    0.1373   12.5135 H   0  0  0  0  0  0  0  0  0  0  0  0
   20.2574   -0.4288   11.5121 H   0  0  0  0  0  0  0  0  0  0  0  0
   19.3407   -1.4471   15.6775 H   0  0  0  0  0  0  0  0  0  0  0  0
   20.2814   -0.4409   16.7804 H   0  0  0  0  0  0  0  0  0  0  0  0
   17.1211   -1.8979   16.7185 H   0  0  0  0  0  0  0  0  0  0  0  0
   18.6574    1.9847   17.3714 H   0  0  0  0  0  0  0  0  0  0  0  0
   17.8441   -0.1750   13.8103 H   0  0  0  0  0  0  0  0  0  0  0  0
   18.2068    2.0878   13.0119 H   0  0  0  0  0  0  0  0  0  0  0  0
   18.4651    1.4832   11.3927 H   0  0  0  0  0  0  0  0  0  0  0  0
   16.1444    0.3184   11.9734 H   0  0  0  0  0  0  0  0  0  0  0  0
   16.3969    3.4963   11.7133 H   0  0  0  0  0  0  0  0  0  0  0  0
   14.1933    1.4183   11.3001 H   0  0  0  0  0  0  0  0  0  0  0  0
   13.9255    3.0649   11.8142 H   0  0  0  0  0  0  0  0  0  0  0  0
   12.9762    2.3440   13.9342 H   0  0  0  0  0  0  0  0  0  0  0  0
   12.2410    1.4332   12.6194 H   0  0  0  0  0  0  0  0  0  0  0  0
   11.5580   -0.1283   14.1169 H   0  0  0  0  0  0  0  0  0  0  0  0
   12.3936    0.4397   15.5417 H   0  0  0  0  0  0  0  0  0  0  0  0
   14.0879   -1.4788   16.8033 H   0  0  0  0  0  0  0  0  0  0  0  0
   13.8335   -4.0714   17.1202 H   0  0  0  0  0  0  0  0  0  0  0  0
   11.4150   -2.6417   13.5718 H   0  0  0  0  0  0  0  0  0  0  0  0
   14.7371    0.3664   15.5907 H   0  0  0  0  0  0  0  0  0  0  0  0
   15.5023   -0.4036   14.2203 H   0  0  0  0  0  0  0  0  0  0  0  0
   16.6236    1.7016   14.6839 H   0  0  0  0  0  0  0  0  0  0  0  0
   15.1338    2.5660   14.8183 H   0  0  0  0  0  0  0  0  0  0  0  0
   18.0339   -2.5637   14.0286 H   0  0  0  0  0  0  0  0  0  0  0  0
   17.3675   -4.6294   12.9129 H   0  0  0  0  0  0  0  0  0  0  0  0
   17.1118   -4.7014   10.4480 H   0  0  0  0  0  0  0  0  0  0  0  0
   17.5128   -2.6628    9.1056 H   0  0  0  0  0  0  0  0  0  0  0  0
   18.1180   -0.5518   10.1971 H   0  0  0  0  0  0  0  0  0  0  0  0
  1  2  1  0
  2  3  1  0
  3  4  2  0
  3  5  1  0
  5  6  1  0
  6  7  1  0
  7  8  2  0
  8  9  1  0
  9 10  2  0
  2 11  1  0
 11 12  1  0
 12 13  1  0
 13 14  1  0
 14 15  1  0
 14 16  1  0
 16 17  1  0
 17 18  1  0
 18 19  1  0
 19 20  1  0
 20 21  1  0
 21 22  2  0
 22 23  1  0
 23 24  1  0
 18 25  1  0
 25 26  1  0
 11 27  1  0
 27 28  2  0
 28 29  1  0
 29 30  2  0
 30 31  1  0
 31 32  2  0
 10  6  1  0
 26 14  1  0
 32 27  1  0
 24 20  2  0
  1 33  1  0
  1 34  1  0
  1 35  1  0
  5 36  1  0
  5 37  1  0
  7 38  1  0
 10 39  1  0
 11 40  1  0
 12 41  1  0
 12 42  1  0
 13 43  1  0
 15 44  1  0
 16 45  1  0
 16 46  1  0
 17 47  1  0
 17 48  1  0
 19 49  1  0
 19 50  1  0
 21 51  1  0
 22 52  1  0
 24 53  1  0
 25 54  1  0
 25 55  1  0
 26 56  1  0
 26 57  1  0
 28 58  1  0
 29 59  1  0
 30 60  1  0
 31 61  1  0
 32 62  1  0
M  END
>  <Energy>  (543) 
89.405846596722839

>  <compound_id>  (543) 
3518

>  <target_id>  (543) 
1

>  <reference_id>  (543) 
83

>  <inspiration_ids>  (543) 
[120, 83]

>  <energy_score>  (543) 
-13.1600279591013

>  <distance_score>  (543) 
2.85900021389761

>  <path>  (543) 
/opt/xchem-fragalysis-2/maxwin/BulkDock/SCRATCH/505734/C3518-P83/C3518-P83.minimised.mol

>  <scratch_subdir>  (543) 
/opt/xchem-fragalysis-2/maxwin/BulkDock/SCRATCH/505734/C3518-P83

>  <fragmenstein_runtime>  (543) 
6.999111175537109

>  <fragmenstein_outcome>  (543) 
too moved

>  <fragmenstein_mode>  (543) 
expansion

>  <fragmenstein_error>  (543) 


$$$$
C3519-P120
     RDKit          3D

 65 68  0  0  0  0  0  0  0  0999 V2000
   19.6011   -0.9991   11.3654 C   0  0  0  0  0  0  0  0  0  0  0  0
   18.7539   -0.4860   12.4954 N   0  0  0  0  0  0  0  0  0  0  0  0
   18.9796   -1.2996   13.7680 C   0  0  0  0  0  0  0  0  0  0  0  0
   19.7497   -1.1441   14.6444 O   0  0  0  0  0  0  0  0  0  0  0  0
   17.8999   -2.3817   13.7733 C   0  0  0  0  0  0  0  0  0  0  0  0
   17.4536   -2.7532   15.1020 N   0  0  0  0  0  0  0  0  0  0  0  0
   17.0845   -4.0012   15.5030 C   0  0  0  0  0  0  0  0  0  0  0  0
   16.6633   -3.9571   16.7462 N   0  0  0  0  0  0  0  0  0  0  0  0
   16.7654   -2.6513   17.1716 N   0  0  0  0  0  0  0  0  0  0  0  0
   17.2324   -1.9403   16.1701 C   0  0  0  0  0  0  0  0  0  0  0  0
   19.4032    0.8651   12.0152 C   0  0  0  0  0  0  0  0  0  0  0  0
   18.6152    1.9678   12.8150 C   0  0  0  0  0  0  0  0  0  0  0  0
   17.1479    2.0371   12.3660 C   0  0  0  0  0  0  0  0  0  0  0  0
   16.3580    2.8058   13.3269 N   0  0  0  0  0  0  0  0  0  0  0  0
   14.9190    2.8282   13.0613 C   0  0  0  0  0  0  0  0  0  0  0  0
   14.7119    3.7094   11.9694 O   0  0  0  0  0  0  0  0  0  0  0  0
   14.1999    3.3933   14.2977 C   0  0  0  0  0  0  0  0  0  0  0  0
   14.2340    2.4089   15.4689 C   0  0  0  0  0  0  0  0  0  0  0  0
   13.6681    1.0984   15.0974 N   0  0  0  0  0  0  0  0  0  0  0  0
   13.7187    0.1994   16.2661 C   0  0  0  0  0  0  0  0  0  0  0  0
   12.9576   -1.0740   16.0209 C   0  0  0  0  0  0  0  0  0  0  0  0
   13.3231   -2.3389   16.5945 C   0  0  0  0  0  0  0  0  0  0  0  0
   12.4818   -3.3588   16.2176 C   0  0  0  0  0  0  0  0  0  0  0  0
   11.2836   -2.8201   15.1342 S   0  0  0  0  0  0  0  0  0  0  0  0
   11.8175   -1.2079   15.2468 C   0  0  0  0  0  0  0  0  0  0  0  0
   14.3935    0.5266   13.9491 C   0  0  0  0  0  0  0  0  0  0  0  0
   14.2903    1.4649   12.7505 C   0  0  0  0  0  0  0  0  0  0  0  0
   20.8968    1.1534   12.2524 C   0  0  0  0  0  0  0  0  0  0  0  0
   21.4779    1.1559   13.5279 C   0  0  0  0  0  0  0  0  0  0  0  0
   22.8366    1.4338   13.6945 C   0  0  0  0  0  0  0  0  0  0  0  0
   23.6334    1.7253   12.5907 C   0  0  0  0  0  0  0  0  0  0  0  0
   23.0720    1.7447   11.3172 C   0  0  0  0  0  0  0  0  0  0  0  0
   21.7143    1.4656   11.1486 C   0  0  0  0  0  0  0  0  0  0  0  0
   19.2866   -2.0524   11.2827 H   0  0  0  0  0  0  0  0  0  0  0  0
   20.6648   -1.1234   11.6063 H   0  0  0  0  0  0  0  0  0  0  0  0
   19.3760   -0.6352   10.3523 H   0  0  0  0  0  0  0  0  0  0  0  0
   18.3078   -3.2755   13.2896 H   0  0  0  0  0  0  0  0  0  0  0  0
   17.0077   -2.0496   13.2316 H   0  0  0  0  0  0  0  0  0  0  0  0
   17.1280   -4.8806   14.8770 H   0  0  0  0  0  0  0  0  0  0  0  0
   17.4224   -0.8757   16.1793 H   0  0  0  0  0  0  0  0  0  0  0  0
   19.1202    1.1112   10.9756 H   0  0  0  0  0  0  0  0  0  0  0  0
   18.6610    1.7488   13.8906 H   0  0  0  0  0  0  0  0  0  0  0  0
   19.0740    2.9548   12.6675 H   0  0  0  0  0  0  0  0  0  0  0  0
   17.0876    2.4858   11.3676 H   0  0  0  0  0  0  0  0  0  0  0  0
   16.7689    1.0162   12.2952 H   0  0  0  0  0  0  0  0  0  0  0  0
   16.6698    3.7768   13.3064 H   0  0  0  0  0  0  0  0  0  0  0  0
   13.7513    3.7780   11.8372 H   0  0  0  0  0  0  0  0  0  0  0  0
   13.1564    3.6278   14.0449 H   0  0  0  0  0  0  0  0  0  0  0  0
   14.6417    4.3524   14.5989 H   0  0  0  0  0  0  0  0  0  0  0  0
   13.6444    2.8416   16.2868 H   0  0  0  0  0  0  0  0  0  0  0  0
   15.2621    2.3001   15.8385 H   0  0  0  0  0  0  0  0  0  0  0  0
   14.7567   -0.0241   16.5429 H   0  0  0  0  0  0  0  0  0  0  0  0
   13.2519    0.6895   17.1298 H   0  0  0  0  0  0  0  0  0  0  0  0
   14.1655   -2.4942   17.2592 H   0  0  0  0  0  0  0  0  0  0  0  0
   12.5275   -4.3982   16.5117 H   0  0  0  0  0  0  0  0  0  0  0  0
   11.2988   -0.4358   14.6933 H   0  0  0  0  0  0  0  0  0  0  0  0
   15.4414    0.3257   14.2046 H   0  0  0  0  0  0  0  0  0  0  0  0
   13.9564   -0.4301   13.6435 H   0  0  0  0  0  0  0  0  0  0  0  0
   13.2315    1.6029   12.4850 H   0  0  0  0  0  0  0  0  0  0  0  0
   14.7232    1.0067   11.8540 H   0  0  0  0  0  0  0  0  0  0  0  0
   20.8825    0.9481   14.4137 H   0  0  0  0  0  0  0  0  0  0  0  0
   23.2696    1.4237   14.6919 H   0  0  0  0  0  0  0  0  0  0  0  0
   24.6899    1.9422   12.7254 H   0  0  0  0  0  0  0  0  0  0  0  0
   23.6915    1.9808   10.4557 H   0  0  0  0  0  0  0  0  0  0  0  0
   21.2990    1.4961   10.1433 H   0  0  0  0  0  0  0  0  0  0  0  0
  1  2  1  0
  2  3  1  0
  3  4  2  0
  3  5  1  0
  5  6  1  0
  6  7  1  0
  7  8  2  0
  8  9  1  0
  9 10  2  0
  2 11  1  0
 11 12  1  0
 12 13  1  0
 13 14  1  0
 14 15  1  0
 15 16  1  0
 15 17  1  0
 17 18  1  0
 18 19  1  0
 19 20  1  0
 20 21  1  0
 21 22  1  0
 22 23  2  0
 23 24  1  0
 24 25  1  0
 19 26  1  0
 26 27  1  0
 11 28  1  0
 28 29  2  0
 29 30  1  0
 30 31  2  0
 31 32  1  0
 32 33  2  0
 10  6  1  0
 27 15  1  0
 33 28  1  0
 25 21  2  0
  1 34  1  0
  1 35  1  0
  1 36  1  0
  5 37  1  0
  5 38  1  0
  7 39  1  0
 10 40  1  0
 11 41  1  0
 12 42  1  0
 12 43  1  0
 13 44  1  0
 13 45  1  0
 14 46  1  0
 16 47  1  0
 17 48  1  0
 17 49  1  0
 18 50  1  0
 18 51  1  0
 20 52  1  0
 20 53  1  0
 22 54  1  0
 23 55  1  0
 25 56  1  0
 26 57  1  0
 26 58  1  0
 27 59  1  0
 27 60  1  0
 29 61  1  0
 30 62  1  0
 31 63  1  0
 32 64  1  0
 33 65  1  0
M  END
>  <Energy>  (544) 
63.313070888304217

>  <compound_id>  (544) 
3519

>  <target_id>  (544) 
1

>  <reference_id>  (544) 
120

>  <inspiration_ids>  (544) 
[120, 86]

>  <energy_score>  (544) 
-1.7949571453065687

>  <distance_score>  (544) 
4.037690551368099

>  <path>  (544) 
/opt/xchem-fragalysis-2/maxwin/BulkDock/SCRATCH/505734/C3519-P120/C3519-P120.minimised.mol

>  <scratch_subdir>  (544) 
/opt/xchem-fragalysis-2/maxwin/BulkDock/SCRATCH/505734/C3519-P120

>  <fragmenstein_runtime>  (544) 
4.904493808746338

>  <fragmenstein_outcome>  (544) 
too moved

>  <fragmenstein_mode>  (544) 
expansion

>  <fragmenstein_error>  (544) 


$$$$
C3519-P86
     RDKit          3D

 65 68  0  0  0  0  0  0  0  0999 V2000
   19.2303    1.0269   15.7071 C   0  0  0  0  0  0  0  0  0  0  0  0
   19.8898    0.6972   14.3943 N   0  0  0  0  0  0  0  0  0  0  0  0
   19.1210   -0.3894   13.6485 C   0  0  0  0  0  0  0  0  0  0  0  0
   18.2448   -0.3022   12.8676 O   0  0  0  0  0  0  0  0  0  0  0  0
   19.7116   -1.7218   14.1030 C   0  0  0  0  0  0  0  0  0  0  0  0
   19.6865   -2.7279   13.0642 N   0  0  0  0  0  0  0  0  0  0  0  0
   18.6038   -3.4252   12.6263 C   0  0  0  0  0  0  0  0  0  0  0  0
   18.9918   -4.3318   11.7572 N   0  0  0  0  0  0  0  0  0  0  0  0
   20.3560   -4.2118   11.6119 N   0  0  0  0  0  0  0  0  0  0  0  0
   20.7568   -3.2410   12.4005 C   0  0  0  0  0  0  0  0  0  0  0  0
   19.8251    2.2403   14.2744 C   0  0  0  0  0  0  0  0  0  0  0  0
   18.6723    2.8322   13.3771 C   0  0  0  0  0  0  0  0  0  0  0  0
   17.2288    2.7188   13.8791 C   0  0  0  0  0  0  0  0  0  0  0  0
   16.3085    3.2327   12.8732 N   0  0  0  0  0  0  0  0  0  0  0  0
   14.8850    2.9483   13.0316 C   0  0  0  0  0  0  0  0  0  0  0  0
   14.3168    3.7479   12.0006 O   0  0  0  0  0  0  0  0  0  0  0  0
   14.2421    3.4225   14.3402 C   0  0  0  0  0  0  0  0  0  0  0  0
   14.3377    2.4116   15.4765 C   0  0  0  0  0  0  0  0  0  0  0  0
   13.8082    1.0982   15.0890 N   0  0  0  0  0  0  0  0  0  0  0  0
   13.8543    0.1888   16.2470 C   0  0  0  0  0  0  0  0  0  0  0  0
   13.0969   -1.0860   16.0072 C   0  0  0  0  0  0  0  0  0  0  0  0
   13.4505   -2.3431   16.6088 C   0  0  0  0  0  0  0  0  0  0  0  0
   12.6043   -3.3643   16.2445 C   0  0  0  0  0  0  0  0  0  0  0  0
   11.4150   -2.8363   15.1449 S   0  0  0  0  0  0  0  0  0  0  0  0
   11.9661   -1.2280   15.2216 C   0  0  0  0  0  0  0  0  0  0  0  0
   14.5377    0.5545   13.9306 C   0  0  0  0  0  0  0  0  0  0  0  0
   14.4792    1.4989   12.7313 C   0  0  0  0  0  0  0  0  0  0  0  0
   20.5845    3.1834   15.2298 C   0  0  0  0  0  0  0  0  0  0  0  0
   21.9378    2.9331   15.5275 C   0  0  0  0  0  0  0  0  0  0  0  0
   22.6447    3.7686   16.3928 C   0  0  0  0  0  0  0  0  0  0  0  0
   22.0130    4.8669   16.9699 C   0  0  0  0  0  0  0  0  0  0  0  0
   20.6761    5.1320   16.6806 C   0  0  0  0  0  0  0  0  0  0  0  0
   19.9646    4.2978   15.8151 C   0  0  0  0  0  0  0  0  0  0  0  0
   18.3234    1.6349   15.7394 H   0  0  0  0  0  0  0  0  0  0  0  0
   19.9605    1.2730   16.4888 H   0  0  0  0  0  0  0  0  0  0  0  0
   18.8477    0.0602   16.0712 H   0  0  0  0  0  0  0  0  0  0  0  0
   19.1255   -2.1022   14.9462 H   0  0  0  0  0  0  0  0  0  0  0  0
   20.7513   -1.5992   14.4253 H   0  0  0  0  0  0  0  0  0  0  0  0
   17.5887   -3.2473   12.9558 H   0  0  0  0  0  0  0  0  0  0  0  0
   21.7752   -2.9002   12.5226 H   0  0  0  0  0  0  0  0  0  0  0  0
   20.5891    2.2794   13.4716 H   0  0  0  0  0  0  0  0  0  0  0  0
   18.8927    3.8878   13.1664 H   0  0  0  0  0  0  0  0  0  0  0  0
   18.7262    2.3217   12.4041 H   0  0  0  0  0  0  0  0  0  0  0  0
   17.0208    1.6724   14.0766 H   0  0  0  0  0  0  0  0  0  0  0  0
   17.1170    3.2920   14.8030 H   0  0  0  0  0  0  0  0  0  0  0  0
   16.5702    2.8518   11.9603 H   0  0  0  0  0  0  0  0  0  0  0  0
   14.8887    4.5342   11.9914 H   0  0  0  0  0  0  0  0  0  0  0  0
   13.1807    3.6468   14.1589 H   0  0  0  0  0  0  0  0  0  0  0  0
   14.6782    4.3798   14.6547 H   0  0  0  0  0  0  0  0  0  0  0  0
   13.7509    2.8076   16.3153 H   0  0  0  0  0  0  0  0  0  0  0  0
   15.3683    2.3238   15.8366 H   0  0  0  0  0  0  0  0  0  0  0  0
   14.8933   -0.0344   16.5234 H   0  0  0  0  0  0  0  0  0  0  0  0
   13.3866    0.6712   17.1156 H   0  0  0  0  0  0  0  0  0  0  0  0
   14.2842   -2.4877   17.2850 H   0  0  0  0  0  0  0  0  0  0  0  0
   12.6347   -4.3994   16.5556 H   0  0  0  0  0  0  0  0  0  0  0  0
   11.4589   -0.4651   14.6440 H   0  0  0  0  0  0  0  0  0  0  0  0
   15.5692    0.3102   14.1973 H   0  0  0  0  0  0  0  0  0  0  0  0
   14.0884   -0.3906   13.6044 H   0  0  0  0  0  0  0  0  0  0  0  0
   13.4508    1.4937   12.3399 H   0  0  0  0  0  0  0  0  0  0  0  0
   15.0850    1.0908   11.9114 H   0  0  0  0  0  0  0  0  0  0  0  0
   22.4469    2.0795   15.0829 H   0  0  0  0  0  0  0  0  0  0  0  0
   23.6894    3.5644   16.6137 H   0  0  0  0  0  0  0  0  0  0  0  0
   22.5642    5.5205   17.6414 H   0  0  0  0  0  0  0  0  0  0  0  0
   20.1878    5.9952   17.1268 H   0  0  0  0  0  0  0  0  0  0  0  0
   18.9262    4.5405   15.6069 H   0  0  0  0  0  0  0  0  0  0  0  0
  1  2  1  0
  2  3  1  0
  3  4  2  0
  3  5  1  0
  5  6  1  0
  6  7  1  0
  7  8  2  0
  8  9  1  0
  9 10  2  0
  2 11  1  0
 11 12  1  0
 12 13  1  0
 13 14  1  0
 14 15  1  0
 15 16  1  0
 15 17  1  0
 17 18  1  0
 18 19  1  0
 19 20  1  0
 20 21  1  0
 21 22  1  0
 22 23  2  0
 23 24  1  0
 24 25  1  0
 19 26  1  0
 26 27  1  0
 11 28  1  0
 28 29  2  0
 29 30  1  0
 30 31  2  0
 31 32  1  0
 32 33  2  0
 10  6  1  0
 27 15  1  0
 33 28  1  0
 25 21  2  0
  1 34  1  0
  1 35  1  0
  1 36  1  0
  5 37  1  0
  5 38  1  0
  7 39  1  0
 10 40  1  0
 11 41  1  0
 12 42  1  0
 12 43  1  0
 13 44  1  0
 13 45  1  0
 14 46  1  0
 16 47  1  0
 17 48  1  0
 17 49  1  0
 18 50  1  0
 18 51  1  0
 20 52  1  0
 20 53  1  0
 22 54  1  0
 23 55  1  0
 25 56  1  0
 26 57  1  0
 26 58  1  0
 27 59  1  0
 27 60  1  0
 29 61  1  0
 30 62  1  0
 31 63  1  0
 32 64  1  0
 33 65  1  0
M  END
>  <Energy>  (545) 
80.21023763351576

>  <compound_id>  (545) 
3519

>  <target_id>  (545) 
1

>  <reference_id>  (545) 
86

>  <inspiration_ids>  (545) 
[120, 86]

>  <energy_score>  (545) 
15.102209599906104

>  <distance_score>  (545) 
3.9117894645679123

>  <path>  (545) 
/opt/xchem-fragalysis-2/maxwin/BulkDock/SCRATCH/505734/C3519-P86/C3519-P86.minimised.mol

>  <scratch_subdir>  (545) 
/opt/xchem-fragalysis-2/maxwin/BulkDock/SCRATCH/505734/C3519-P86

>  <fragmenstein_runtime>  (545) 
5.276792526245117

>  <fragmenstein_outcome>  (545) 
too moved

>  <fragmenstein_mode>  (545) 
expansion

>  <fragmenstein_error>  (545) 


$$$$
C3521-P120
     RDKit          3D

 66 71  0  0  0  0  0  0  0  0999 V2000
   16.3560    1.7722   13.1698 O   0  0  0  0  0  0  0  0  0  0  0  0
   16.3941    2.4421   14.4283 C   0  0  0  0  0  0  0  0  0  0  0  0
   15.1942    3.4089   14.4879 C   0  0  0  0  0  0  0  0  0  0  0  0
   14.1829    3.0511   15.5698 C   0  0  0  0  0  0  0  0  0  0  0  0
   13.8474    1.6280   15.5616 N   0  0  0  0  0  0  0  0  0  0  0  0
   12.8510    1.3511   16.5852 C   0  0  0  0  0  0  0  0  0  0  0  0
   11.9869    0.2071   16.1589 C   0  0  0  0  0  0  0  0  0  0  0  0
   12.2183   -1.1419   16.5251 C   0  0  0  0  0  0  0  0  0  0  0  0
   11.3036   -2.0238   15.9943 C   0  0  0  0  0  0  0  0  0  0  0  0
   10.0163   -1.1860   15.2770 S   0  0  0  0  0  0  0  0  0  0  0  0
   10.7786    0.3155   15.4988 C   0  0  0  0  0  0  0  0  0  0  0  0
   15.0252    0.7411   15.6682 C   0  0  0  0  0  0  0  0  0  0  0  0
   16.3857    1.4546   15.6492 C   0  0  0  0  0  0  0  0  0  0  0  0
   17.6050    0.6329   15.9310 N   0  0  0  0  0  0  0  0  0  0  0  0
   17.6484   -0.8143   15.5887 C   0  0  0  0  0  0  0  0  0  0  0  0
   17.1147   -1.8615   16.6153 C   0  0  0  0  0  0  0  0  0  0  0  0
   16.0327   -2.6708   16.0997 N   0  0  0  0  0  0  0  0  0  0  0  0
   15.7344   -2.5323   14.8172 N   0  0  0  0  0  0  0  0  0  0  0  0
   14.4111   -2.5470   14.8401 C   0  0  0  0  0  0  0  0  0  0  0  0
   13.6192   -2.0227   13.8621 N   0  0  0  0  0  0  0  0  0  0  0  0
   14.1595   -1.4221   12.7104 C   0  0  0  0  0  0  0  0  0  0  0  0
   15.1116   -2.0277   11.9566 C   0  0  0  0  0  0  0  0  0  0  0  0
   15.7441   -1.3729   10.8277 C   0  0  0  0  0  0  0  0  0  0  0  0
   15.4255   -0.1151   10.4874 C   0  0  0  0  0  0  0  0  0  0  0  0
   14.4248    0.5620   11.2261 C   0  0  0  0  0  0  0  0  0  0  0  0
   13.8990    1.7628   11.0858 N   0  0  0  0  0  0  0  0  0  0  0  0
   12.8937    1.8884   12.0105 N   0  0  0  0  0  0  0  0  0  0  0  0
   12.8703    0.7795   12.7143 C   0  0  0  0  0  0  0  0  0  0  0  0
   13.8184   -0.1098   12.2899 N   0  0  0  0  0  0  0  0  0  0  0  0
   13.9435   -3.1895   15.9632 N   0  0  0  0  0  0  0  0  0  0  0  0
   15.0019   -3.2864   16.7606 C   0  0  0  0  0  0  0  0  0  0  0  0
   15.0401   -3.7922   18.1309 C   0  0  0  0  0  0  0  0  0  0  0  0
   13.8694   -3.8089   18.8960 C   0  0  0  0  0  0  0  0  0  0  0  0
   13.8757   -4.2503   20.2207 C   0  0  0  0  0  0  0  0  0  0  0  0
   15.0572   -4.7064   20.7952 C   0  0  0  0  0  0  0  0  0  0  0  0
   16.2271   -4.7299   20.0410 C   0  0  0  0  0  0  0  0  0  0  0  0
   16.2188   -4.2774   18.7176 C   0  0  0  0  0  0  0  0  0  0  0  0
   16.0857    2.4066   12.4825 H   0  0  0  0  0  0  0  0  0  0  0  0
   17.3236    3.0231   14.4450 H   0  0  0  0  0  0  0  0  0  0  0  0
   15.5680    4.4186   14.7005 H   0  0  0  0  0  0  0  0  0  0  0  0
   14.6827    3.4726   13.5207 H   0  0  0  0  0  0  0  0  0  0  0  0
   13.2813    3.6498   15.3859 H   0  0  0  0  0  0  0  0  0  0  0  0
   14.5602    3.3605   16.5537 H   0  0  0  0  0  0  0  0  0  0  0  0
   13.3084    1.1724   17.5668 H   0  0  0  0  0  0  0  0  0  0  0  0
   12.1853    2.2148   16.7260 H   0  0  0  0  0  0  0  0  0  0  0  0
   13.0538   -1.4391   17.1388 H   0  0  0  0  0  0  0  0  0  0  0  0
   11.3099   -3.1061   16.0586 H   0  0  0  0  0  0  0  0  0  0  0  0
   10.3027    1.2240   15.1534 H   0  0  0  0  0  0  0  0  0  0  0  0
   14.9767    0.1329   16.5782 H   0  0  0  0  0  0  0  0  0  0  0  0
   14.9935    0.0658   14.8213 H   0  0  0  0  0  0  0  0  0  0  0  0
   16.3880    2.1198   16.5255 H   0  0  0  0  0  0  0  0  0  0  0  0
   17.8766    0.7552   16.9054 H   0  0  0  0  0  0  0  0  0  0  0  0
   17.2963   -0.9259   14.5597 H   0  0  0  0  0  0  0  0  0  0  0  0
   18.7242   -1.0245   15.5107 H   0  0  0  0  0  0  0  0  0  0  0  0
   16.7621   -1.3661   17.5262 H   0  0  0  0  0  0  0  0  0  0  0  0
   17.9224   -2.5511   16.8820 H   0  0  0  0  0  0  0  0  0  0  0  0
   12.6910   -1.7165   14.1143 H   0  0  0  0  0  0  0  0  0  0  0  0
   15.4686   -3.0174   12.2023 H   0  0  0  0  0  0  0  0  0  0  0  0
   16.5070   -1.9230   10.2866 H   0  0  0  0  0  0  0  0  0  0  0  0
   15.9044    0.3933    9.6594 H   0  0  0  0  0  0  0  0  0  0  0  0
   12.1892    0.5561   13.5049 H   0  0  0  0  0  0  0  0  0  0  0  0
   12.9295   -3.4913   18.4544 H   0  0  0  0  0  0  0  0  0  0  0  0
   12.9523   -4.2384   20.7951 H   0  0  0  0  0  0  0  0  0  0  0  0
   15.0633   -5.0534   21.8252 H   0  0  0  0  0  0  0  0  0  0  0  0
   17.1466   -5.1096   20.4800 H   0  0  0  0  0  0  0  0  0  0  0  0
   17.1437   -4.3445   18.1512 H   0  0  0  0  0  0  0  0  0  0  0  0
  1  2  1  0
  2  3  1  0
  3  4  1  0
  4  5  1  0
  5  6  1  0
  6  7  1  0
  7  8  1  0
  8  9  2  0
  9 10  1  0
 10 11  1  0
  5 12  1  0
 12 13  1  0
 13 14  1  0
 14 15  1  0
 15 16  1  0
 16 17  1  0
 17 18  1  0
 18 19  2  0
 19 20  1  0
 20 21  1  0
 21 22  2  0
 22 23  1  0
 23 24  2  0
 24 25  1  0
 25 26  2  0
 26 27  1  0
 27 28  2  0
 28 29  1  0
 19 30  1  0
 30 31  2  0
 31 32  1  0
 32 33  2  0
 33 34  1  0
 34 35  2  0
 35 36  1  0
 36 37  2  0
 13  2  1  0
 31 17  1  0
 37 32  1  0
 11  7  2  0
 29 21  1  0
 29 25  1  0
  1 38  1  0
  2 39  1  0
  3 40  1  0
  3 41  1  0
  4 42  1  0
  4 43  1  0
  6 44  1  0
  6 45  1  0
  8 46  1  0
  9 47  1  0
 11 48  1  0
 12 49  1  0
 12 50  1  0
 13 51  1  0
 14 52  1  0
 15 53  1  0
 15 54  1  0
 16 55  1  0
 16 56  1  0
 20 57  1  0
 22 58  1  0
 23 59  1  0
 24 60  1  0
 28 61  1  0
 33 62  1  0
 34 63  1  0
 35 64  1  0
 36 65  1  0
 37 66  1  0
M  END
>  <Energy>  (546) 
130.46953536468661

>  <compound_id>  (546) 
3521

>  <target_id>  (546) 
1

>  <reference_id>  (546) 
120

>  <inspiration_ids>  (546) 
[120, 98]

>  <energy_score>  (546) 
-35.258424882793406

>  <distance_score>  (546) 
2.186035691838074

>  <path>  (546) 
/opt/xchem-fragalysis-2/maxwin/BulkDock/SCRATCH/505734/C3521-P120/C3521-P120.minimised.mol

>  <scratch_subdir>  (546) 
/opt/xchem-fragalysis-2/maxwin/BulkDock/SCRATCH/505734/C3521-P120

>  <fragmenstein_runtime>  (546) 
5.2605133056640625

>  <fragmenstein_outcome>  (546) 
too moved

>  <fragmenstein_mode>  (546) 
expansion

>  <fragmenstein_error>  (546) 


$$$$
C3521-P98
     RDKit          3D

 66 71  0  0  0  0  0  0  0  0999 V2000
   15.9222    1.4749   11.6441 O   0  0  0  0  0  0  0  0  0  0  0  0
   16.5004    1.5386   12.9587 C   0  0  0  0  0  0  0  0  0  0  0  0
   15.7704    2.7044   13.6542 C   0  0  0  0  0  0  0  0  0  0  0  0
   16.1465    2.8270   15.1225 C   0  0  0  0  0  0  0  0  0  0  0  0
   16.2719    1.5321   15.7746 N   0  0  0  0  0  0  0  0  0  0  0  0
   15.8929    1.5207   17.1965 C   0  0  0  0  0  0  0  0  0  0  0  0
   14.4649    1.1503   17.2892 C   0  0  0  0  0  0  0  0  0  0  0  0
   14.0180   -0.1786   17.5351 C   0  0  0  0  0  0  0  0  0  0  0  0
   12.8290   -0.3760   16.8896 C   0  0  0  0  0  0  0  0  0  0  0  0
   12.2083    1.0733   16.2279 S   0  0  0  0  0  0  0  0  0  0  0  0
   13.4474    1.9865   16.8851 C   0  0  0  0  0  0  0  0  0  0  0  0
   15.6584    0.4432   15.0026 C   0  0  0  0  0  0  0  0  0  0  0  0
   16.3621    0.1404   13.6976 C   0  0  0  0  0  0  0  0  0  0  0  0
   17.6186   -0.6364   14.0112 N   0  0  0  0  0  0  0  0  0  0  0  0
   17.4473   -2.0987   14.3959 C   0  0  0  0  0  0  0  0  0  0  0  0
   16.8028   -2.6049   15.7367 C   0  0  0  0  0  0  0  0  0  0  0  0
   15.3829   -2.8986   15.6564 N   0  0  0  0  0  0  0  0  0  0  0  0
   14.7100   -2.3663   14.6305 N   0  0  0  0  0  0  0  0  0  0  0  0
   13.4519   -2.6379   14.9151 C   0  0  0  0  0  0  0  0  0  0  0  0
   12.4941   -2.3573   14.0127 N   0  0  0  0  0  0  0  0  0  0  0  0
   11.4238   -1.5297   14.2700 C   0  0  0  0  0  0  0  0  0  0  0  0
   10.4253   -1.8909   15.0966 C   0  0  0  0  0  0  0  0  0  0  0  0
    9.3554   -0.9614   15.3921 C   0  0  0  0  0  0  0  0  0  0  0  0
    9.3387    0.2733   14.8743 C   0  0  0  0  0  0  0  0  0  0  0  0
   10.2774    0.6291   13.8701 C   0  0  0  0  0  0  0  0  0  0  0  0
   10.3942    1.6760   13.0789 N   0  0  0  0  0  0  0  0  0  0  0  0
   11.5669    1.5370   12.3768 N   0  0  0  0  0  0  0  0  0  0  0  0
   12.1378    0.4155   12.7652 C   0  0  0  0  0  0  0  0  0  0  0  0
   11.3227   -0.2617   13.6373 N   0  0  0  0  0  0  0  0  0  0  0  0
   13.2798   -3.3618   16.0573 N   0  0  0  0  0  0  0  0  0  0  0  0
   14.5183   -3.5647   16.5041 C   0  0  0  0  0  0  0  0  0  0  0  0
   14.8617   -4.2940   17.7245 C   0  0  0  0  0  0  0  0  0  0  0  0
   14.0110   -4.1887   18.8330 C   0  0  0  0  0  0  0  0  0  0  0  0
   14.3135   -4.8161   20.0430 C   0  0  0  0  0  0  0  0  0  0  0  0
   15.4676   -5.5843   20.1541 C   0  0  0  0  0  0  0  0  0  0  0  0
   16.3059   -5.7347   19.0521 C   0  0  0  0  0  0  0  0  0  0  0  0
   16.0030   -5.0963   17.8441 C   0  0  0  0  0  0  0  0  0  0  0  0
   16.0801    2.3333   11.2137 H   0  0  0  0  0  0  0  0  0  0  0  0
   17.5634    1.7787   12.8383 H   0  0  0  0  0  0  0  0  0  0  0  0
   15.9956    3.6440   13.1340 H   0  0  0  0  0  0  0  0  0  0  0  0
   14.6844    2.5745   13.5492 H   0  0  0  0  0  0  0  0  0  0  0  0
   15.4222    3.4891   15.6075 H   0  0  0  0  0  0  0  0  0  0  0  0
   17.1164    3.3330   15.2009 H   0  0  0  0  0  0  0  0  0  0  0  0
   16.5121    0.7793   17.7165 H   0  0  0  0  0  0  0  0  0  0  0  0
   16.0989    2.4829   17.6805 H   0  0  0  0  0  0  0  0  0  0  0  0
   14.6135   -0.9775   17.9570 H   0  0  0  0  0  0  0  0  0  0  0  0
   12.2757   -1.2946   16.8306 H   0  0  0  0  0  0  0  0  0  0  0  0
   13.4888    3.0511   16.7021 H   0  0  0  0  0  0  0  0  0  0  0  0
   15.6836   -0.4314   15.6297 H   0  0  0  0  0  0  0  0  0  0  0  0
   14.6112    0.6375   14.7573 H   0  0  0  0  0  0  0  0  0  0  0  0
   15.7416   -0.5027   13.0624 H   0  0  0  0  0  0  0  0  0  0  0  0
   18.1868   -0.6146   13.1629 H   0  0  0  0  0  0  0  0  0  0  0  0
   17.0091   -2.6232   13.5372 H   0  0  0  0  0  0  0  0  0  0  0  0
   18.4858   -2.4542   14.4415 H   0  0  0  0  0  0  0  0  0  0  0  0
   16.9685   -1.9008   16.5577 H   0  0  0  0  0  0  0  0  0  0  0  0
   17.3041   -3.5406   15.9913 H   0  0  0  0  0  0  0  0  0  0  0  0
   12.9486   -2.0941   13.1439 H   0  0  0  0  0  0  0  0  0  0  0  0
   10.4732   -2.8754   15.5412 H   0  0  0  0  0  0  0  0  0  0  0  0
    8.5714   -1.2367   16.0746 H   0  0  0  0  0  0  0  0  0  0  0  0
    8.6205    0.9933   15.2411 H   0  0  0  0  0  0  0  0  0  0  0  0
   13.1012    0.0519   12.4385 H   0  0  0  0  0  0  0  0  0  0  0  0
   13.0945   -3.6088   18.7610 H   0  0  0  0  0  0  0  0  0  0  0  0
   13.6407   -4.7007   20.8899 H   0  0  0  0  0  0  0  0  0  0  0  0
   15.7050   -6.0788   21.0926 H   0  0  0  0  0  0  0  0  0  0  0  0
   17.1916   -6.3616   19.1284 H   0  0  0  0  0  0  0  0  0  0  0  0
   16.6561   -5.2795   16.9965 H   0  0  0  0  0  0  0  0  0  0  0  0
  1  2  1  0
  2  3  1  0
  3  4  1  0
  4  5  1  0
  5  6  1  0
  6  7  1  0
  7  8  1  0
  8  9  2  0
  9 10  1  0
 10 11  1  0
  5 12  1  0
 12 13  1  0
 13 14  1  0
 14 15  1  0
 15 16  1  0
 16 17  1  0
 17 18  1  0
 18 19  2  0
 19 20  1  0
 20 21  1  0
 21 22  2  0
 22 23  1  0
 23 24  2  0
 24 25  1  0
 25 26  2  0
 26 27  1  0
 27 28  2  0
 28 29  1  0
 19 30  1  0
 30 31  2  0
 31 32  1  0
 32 33  2  0
 33 34  1  0
 34 35  2  0
 35 36  1  0
 36 37  2  0
 13  2  1  0
 31 17  1  0
 37 32  1  0
 11  7  2  0
 29 21  1  0
 29 25  1  0
  1 38  1  0
  2 39  1  0
  3 40  1  0
  3 41  1  0
  4 42  1  0
  4 43  1  0
  6 44  1  0
  6 45  1  0
  8 46  1  0
  9 47  1  0
 11 48  1  0
 12 49  1  0
 12 50  1  0
 13 51  1  0
 14 52  1  0
 15 53  1  0
 15 54  1  0
 16 55  1  0
 16 56  1  0
 20 57  1  0
 22 58  1  0
 23 59  1  0
 24 60  1  0
 28 61  1  0
 33 62  1  0
 34 63  1  0
 35 64  1  0
 36 65  1  0
 37 66  1  0
M  END
>  <Energy>  (547) 
151.27239555179821

>  <compound_id>  (547) 
3521

>  <target_id>  (547) 
1

>  <reference_id>  (547) 
98

>  <inspiration_ids>  (547) 
[120, 98]

>  <energy_score>  (547) 
-14.45556469568055

>  <distance_score>  (547) 
2.4300984851426857

>  <path>  (547) 
/opt/xchem-fragalysis-2/maxwin/BulkDock/SCRATCH/505734/C3521-P98/C3521-P98.minimised.mol

>  <scratch_subdir>  (547) 
/opt/xchem-fragalysis-2/maxwin/BulkDock/SCRATCH/505734/C3521-P98

>  <fragmenstein_runtime>  (547) 
3.959195137023926

>  <fragmenstein_outcome>  (547) 
too moved

>  <fragmenstein_mode>  (547) 
expansion

>  <fragmenstein_error>  (547) 


$$$$
C3525-P120
     RDKit          3D

 60 63  0  0  0  0  0  0  0  0999 V2000
   15.1100   -1.8324   21.9642 O   0  0  0  0  0  0  0  0  0  0  0  0
   15.2480   -1.2465   20.8987 C   0  0  0  0  0  0  0  0  0  0  0  0
   15.6201   -1.9647   19.6693 C   0  0  0  0  0  0  0  0  0  0  0  0
   15.9594   -1.2273   18.6126 C   0  0  0  0  0  0  0  0  0  0  0  0
   15.9205    0.1358   18.5671 N   0  0  0  0  0  0  0  0  0  0  0  0
   15.5155    0.7585   19.6272 C   0  0  0  0  0  0  0  0  0  0  0  0
   15.3680    2.2658   19.6220 C   0  0  0  0  0  0  0  0  0  0  0  0
   16.5170    2.9520   18.8831 C   0  0  0  0  0  0  0  0  0  0  0  0
   16.1569    4.3055   18.4888 N   0  0  0  0  0  0  0  0  0  0  0  0
   16.7924    5.0830   17.1401 S   0  0  0  0  0  0  0  0  0  0  0  0
   16.2549    6.4187   17.2356 O   0  0  0  0  0  0  0  0  0  0  0  0
   16.6328    4.0911   16.0014 N   0  0  0  0  0  0  0  0  0  0  0  0
   16.5004    4.5714   14.6409 C   0  0  0  0  0  0  0  0  0  0  0  0
   16.2214    3.3722   13.8939 N   0  0  0  0  0  0  0  0  0  0  0  0
   14.8410    3.2259   13.4429 C   0  0  0  0  0  0  0  0  0  0  0  0
   14.6467    4.1486   12.3751 O   0  0  0  0  0  0  0  0  0  0  0  0
   13.7411    3.4592   14.4911 C   0  0  0  0  0  0  0  0  0  0  0  0
   13.7494    2.3936   15.5760 C   0  0  0  0  0  0  0  0  0  0  0  0
   13.5784    1.0455   15.0150 N   0  0  0  0  0  0  0  0  0  0  0  0
   13.6695    0.0770   16.1228 C   0  0  0  0  0  0  0  0  0  0  0  0
   12.9095   -1.1818   15.8379 C   0  0  0  0  0  0  0  0  0  0  0  0
   13.1818   -2.4301   16.4953 C   0  0  0  0  0  0  0  0  0  0  0  0
   12.3136   -3.4289   16.1309 C   0  0  0  0  0  0  0  0  0  0  0  0
   11.2038   -2.8929   14.9611 S   0  0  0  0  0  0  0  0  0  0  0  0
   11.8356   -1.3147   14.9783 C   0  0  0  0  0  0  0  0  0  0  0  0
   14.6059    0.7449   13.9976 C   0  0  0  0  0  0  0  0  0  0  0  0
   14.6491    1.7996   12.8897 C   0  0  0  0  0  0  0  0  0  0  0  0
   18.5314    5.2786   17.2889 C   0  0  0  0  0  0  0  0  0  0  0  0
   19.3485    6.3883   17.4137 C   0  0  0  0  0  0  0  0  0  0  0  0
   20.7107    5.9946   17.5202 C   0  0  0  0  0  0  0  0  0  0  0  0
   20.9621    4.6893   17.4891 N   0  0  0  0  0  0  0  0  0  0  0  0
   19.5197    3.8874   17.2956 S   0  0  0  0  0  0  0  0  0  0  0  0
   15.1274    0.1078   20.7654 N   0  0  0  0  0  0  0  0  0  0  0  0
   15.6687   -3.0431   19.6980 H   0  0  0  0  0  0  0  0  0  0  0  0
   16.2982   -1.7164   17.7020 H   0  0  0  0  0  0  0  0  0  0  0  0
   14.4159    2.4744   19.1161 H   0  0  0  0  0  0  0  0  0  0  0  0
   15.2847    2.6495   20.6449 H   0  0  0  0  0  0  0  0  0  0  0  0
   16.7808    2.3708   17.9944 H   0  0  0  0  0  0  0  0  0  0  0  0
   17.4090    2.9687   19.5192 H   0  0  0  0  0  0  0  0  0  0  0  0
   16.1741    4.9535   19.2650 H   0  0  0  0  0  0  0  0  0  0  0  0
   15.7474    5.3584   14.5374 H   0  0  0  0  0  0  0  0  0  0  0  0
   17.4560    4.9876   14.3043 H   0  0  0  0  0  0  0  0  0  0  0  0
   16.4300    2.6525   14.5826 H   0  0  0  0  0  0  0  0  0  0  0  0
   13.7933    3.9386   11.9619 H   0  0  0  0  0  0  0  0  0  0  0  0
   13.8104    4.4557   14.9413 H   0  0  0  0  0  0  0  0  0  0  0  0
   12.7610    3.4596   13.9921 H   0  0  0  0  0  0  0  0  0  0  0  0
   14.6625    2.4458   16.1755 H   0  0  0  0  0  0  0  0  0  0  0  0
   12.9149    2.6086   16.2560 H   0  0  0  0  0  0  0  0  0  0  0  0
   14.7152   -0.1567   16.3381 H   0  0  0  0  0  0  0  0  0  0  0  0
   13.2340    0.4932   17.0412 H   0  0  0  0  0  0  0  0  0  0  0  0
   13.9629   -2.5851   17.2236 H   0  0  0  0  0  0  0  0  0  0  0  0
   12.2832   -4.4492   16.4875 H   0  0  0  0  0  0  0  0  0  0  0  0
   11.3919   -0.5558   14.3465 H   0  0  0  0  0  0  0  0  0  0  0  0
   14.3880   -0.2239   13.5320 H   0  0  0  0  0  0  0  0  0  0  0  0
   15.5996    0.6569   14.4550 H   0  0  0  0  0  0  0  0  0  0  0  0
   13.7167    1.7502   12.3094 H   0  0  0  0  0  0  0  0  0  0  0  0
   15.4420    1.5563   12.1699 H   0  0  0  0  0  0  0  0  0  0  0  0
   18.9836    7.4070   17.4289 H   0  0  0  0  0  0  0  0  0  0  0  0
   21.5588    6.6596   17.6281 H   0  0  0  0  0  0  0  0  0  0  0  0
   14.8679    0.6050   21.6047 H   0  0  0  0  0  0  0  0  0  0  0  0
  1  2  2  0
  2  3  1  0
  3  4  2  0
  4  5  1  0
  5  6  2  0
  6  7  1  0
  7  8  1  0
  8  9  1  0
  9 10  1  0
 10 11  2  0
 10 12  2  0
 12 13  1  0
 13 14  1  0
 14 15  1  0
 15 16  1  0
 15 17  1  0
 17 18  1  0
 18 19  1  0
 19 20  1  0
 20 21  1  0
 21 22  1  0
 22 23  2  0
 23 24  1  0
 24 25  1  0
 19 26  1  0
 26 27  1  0
 10 28  1  0
 28 29  2  0
 29 30  1  0
 30 31  2  0
 31 32  1  0
  6 33  1  0
 33  2  1  0
 27 15  1  0
 32 28  1  0
 25 21  2  0
  3 34  1  0
  4 35  1  0
  7 36  1  0
  7 37  1  0
  8 38  1  0
  8 39  1  0
  9 40  1  0
 13 41  1  0
 13 42  1  0
 14 43  1  0
 16 44  1  0
 17 45  1  0
 17 46  1  0
 18 47  1  0
 18 48  1  0
 20 49  1  0
 20 50  1  0
 22 51  1  0
 23 52  1  0
 25 53  1  0
 26 54  1  0
 26 55  1  0
 27 56  1  0
 27 57  1  0
 29 58  1  0
 30 59  1  0
 33 60  1  0
M  END
>  <Energy>  (548) 
-260.35556701882092

>  <compound_id>  (548) 
3525

>  <target_id>  (548) 
1

>  <reference_id>  (548) 
120

>  <inspiration_ids>  (548) 
[120, 117]

>  <energy_score>  (548) 
-142.62392824032344

>  <distance_score>  (548) 
1.0974178704029063

>  <path>  (548) 
/opt/xchem-fragalysis-2/maxwin/BulkDock/SCRATCH/505734/C3525-P120/C3525-P120.minimised.mol

>  <scratch_subdir>  (548) 
/opt/xchem-fragalysis-2/maxwin/BulkDock/SCRATCH/505734/C3525-P120

>  <fragmenstein_runtime>  (548) 
4.778584003448486

>  <fragmenstein_outcome>  (548) 
too moved

>  <fragmenstein_mode>  (548) 
expansion

>  <fragmenstein_error>  (548) 


$$$$
C3525-P117
     RDKit          3D

 60 63  0  0  0  0  0  0  0  0999 V2000
   15.1457   -1.8270   21.9809 O   0  0  0  0  0  0  0  0  0  0  0  0
   15.2676   -1.2418   20.9131 C   0  0  0  0  0  0  0  0  0  0  0  0
   15.6386   -1.9583   19.6823 C   0  0  0  0  0  0  0  0  0  0  0  0
   15.9672   -1.2193   18.6233 C   0  0  0  0  0  0  0  0  0  0  0  0
   15.9173    0.1433   18.5769 N   0  0  0  0  0  0  0  0  0  0  0  0
   15.5109    0.7636   19.6379 C   0  0  0  0  0  0  0  0  0  0  0  0
   15.3525    2.2696   19.6313 C   0  0  0  0  0  0  0  0  0  0  0  0
   16.5001    2.9632   18.8970 C   0  0  0  0  0  0  0  0  0  0  0  0
   16.1301    4.3119   18.4954 N   0  0  0  0  0  0  0  0  0  0  0  0
   16.7697    5.0918   17.1503 S   0  0  0  0  0  0  0  0  0  0  0  0
   16.2239    6.4244   17.2410 O   0  0  0  0  0  0  0  0  0  0  0  0
   16.6208    4.0977   16.0119 N   0  0  0  0  0  0  0  0  0  0  0  0
   16.4959    4.5753   14.6500 C   0  0  0  0  0  0  0  0  0  0  0  0
   16.2211    3.3746   13.9039 N   0  0  0  0  0  0  0  0  0  0  0  0
   14.8423    3.2248   13.4494 C   0  0  0  0  0  0  0  0  0  0  0  0
   14.6498    4.1443   12.3785 O   0  0  0  0  0  0  0  0  0  0  0  0
   13.7386    3.4600   14.4933 C   0  0  0  0  0  0  0  0  0  0  0  0
   13.7434    2.3973   15.5811 C   0  0  0  0  0  0  0  0  0  0  0  0
   13.5734    1.0476   15.0229 N   0  0  0  0  0  0  0  0  0  0  0  0
   13.6602    0.0825   16.1345 C   0  0  0  0  0  0  0  0  0  0  0  0
   12.9219   -1.1874   15.8408 C   0  0  0  0  0  0  0  0  0  0  0  0
   13.2078   -2.4334   16.4969 C   0  0  0  0  0  0  0  0  0  0  0  0
   12.3660   -3.4479   16.1140 C   0  0  0  0  0  0  0  0  0  0  0  0
   11.2598   -2.9253   14.9345 S   0  0  0  0  0  0  0  0  0  0  0  0
   11.8591   -1.3350   14.9702 C   0  0  0  0  0  0  0  0  0  0  0  0
   14.6073    0.7453   14.0119 C   0  0  0  0  0  0  0  0  0  0  0  0
   14.6543    1.7964   12.9005 C   0  0  0  0  0  0  0  0  0  0  0  0
   18.5066    5.2967   17.3093 C   0  0  0  0  0  0  0  0  0  0  0  0
   19.3164    6.4105   17.4437 C   0  0  0  0  0  0  0  0  0  0  0  0
   20.6804    6.0243   17.5552 C   0  0  0  0  0  0  0  0  0  0  0  0
   20.9397    4.7208   17.5187 N   0  0  0  0  0  0  0  0  0  0  0  0
   19.5031    3.9113   17.3148 S   0  0  0  0  0  0  0  0  0  0  0  0
   15.1314    0.1109   20.7778 N   0  0  0  0  0  0  0  0  0  0  0  0
   15.6956   -3.0363   19.7120 H   0  0  0  0  0  0  0  0  0  0  0  0
   16.3057   -1.7067   17.7117 H   0  0  0  0  0  0  0  0  0  0  0  0
   14.4013    2.4711   19.1209 H   0  0  0  0  0  0  0  0  0  0  0  0
   15.2618    2.6537   20.6534 H   0  0  0  0  0  0  0  0  0  0  0  0
   16.7748    2.3814   18.0121 H   0  0  0  0  0  0  0  0  0  0  0  0
   17.3880    2.9904   19.5387 H   0  0  0  0  0  0  0  0  0  0  0  0
   16.1329    4.9620   19.2701 H   0  0  0  0  0  0  0  0  0  0  0  0
   15.7434    5.3620   14.5403 H   0  0  0  0  0  0  0  0  0  0  0  0
   17.4534    4.9910   14.3179 H   0  0  0  0  0  0  0  0  0  0  0  0
   16.4298    2.6563   14.5941 H   0  0  0  0  0  0  0  0  0  0  0  0
   13.8028    3.9258   11.9567 H   0  0  0  0  0  0  0  0  0  0  0  0
   13.8057    4.4577   14.9411 H   0  0  0  0  0  0  0  0  0  0  0  0
   12.7603    3.4585   13.9907 H   0  0  0  0  0  0  0  0  0  0  0  0
   14.6547    2.4505   16.1832 H   0  0  0  0  0  0  0  0  0  0  0  0
   12.9071    2.6143   16.2580 H   0  0  0  0  0  0  0  0  0  0  0  0
   14.7055   -0.1366   16.3648 H   0  0  0  0  0  0  0  0  0  0  0  0
   13.2056    0.4954   17.0449 H   0  0  0  0  0  0  0  0  0  0  0  0
   13.9833   -2.5779   17.2335 H   0  0  0  0  0  0  0  0  0  0  0  0
   12.3549   -4.4714   16.4625 H   0  0  0  0  0  0  0  0  0  0  0  0
   11.4085   -0.5810   14.3372 H   0  0  0  0  0  0  0  0  0  0  0  0
   14.3939   -0.2253   13.5479 H   0  0  0  0  0  0  0  0  0  0  0  0
   15.5986    0.6606   14.4750 H   0  0  0  0  0  0  0  0  0  0  0  0
   13.7244    1.7438   12.3163 H   0  0  0  0  0  0  0  0  0  0  0  0
   15.4505    1.5514   12.1849 H   0  0  0  0  0  0  0  0  0  0  0  0
   18.9455    7.4270   17.4620 H   0  0  0  0  0  0  0  0  0  0  0  0
   21.5240    6.6938   17.6707 H   0  0  0  0  0  0  0  0  0  0  0  0
   14.8713    0.6070   21.6178 H   0  0  0  0  0  0  0  0  0  0  0  0
  1  2  2  0
  2  3  1  0
  3  4  2  0
  4  5  1  0
  5  6  2  0
  6  7  1  0
  7  8  1  0
  8  9  1  0
  9 10  1  0
 10 11  2  0
 10 12  2  0
 12 13  1  0
 13 14  1  0
 14 15  1  0
 15 16  1  0
 15 17  1  0
 17 18  1  0
 18 19  1  0
 19 20  1  0
 20 21  1  0
 21 22  1  0
 22 23  2  0
 23 24  1  0
 24 25  1  0
 19 26  1  0
 26 27  1  0
 10 28  1  0
 28 29  2  0
 29 30  1  0
 30 31  2  0
 31 32  1  0
  6 33  1  0
 33  2  1  0
 27 15  1  0
 32 28  1  0
 25 21  2  0
  3 34  1  0
  4 35  1  0
  7 36  1  0
  7 37  1  0
  8 38  1  0
  8 39  1  0
  9 40  1  0
 13 41  1  0
 13 42  1  0
 14 43  1  0
 16 44  1  0
 17 45  1  0
 17 46  1  0
 18 47  1  0
 18 48  1  0
 20 49  1  0
 20 50  1  0
 22 51  1  0
 23 52  1  0
 25 53  1  0
 26 54  1  0
 26 55  1  0
 27 56  1  0
 27 57  1  0
 29 58  1  0
 30 59  1  0
 33 60  1  0
M  END
>  <Energy>  (549) 
-260.33336899586112

>  <compound_id>  (549) 
3525

>  <target_id>  (549) 
1

>  <reference_id>  (549) 
117

>  <inspiration_ids>  (549) 
[120, 117]

>  <energy_score>  (549) 
-142.60173021736568

>  <distance_score>  (549) 
1.0996552034795162

>  <path>  (549) 
/opt/xchem-fragalysis-2/maxwin/BulkDock/SCRATCH/505734/C3525-P117/C3525-P117.minimised.mol

>  <scratch_subdir>  (549) 
/opt/xchem-fragalysis-2/maxwin/BulkDock/SCRATCH/505734/C3525-P117

>  <fragmenstein_runtime>  (549) 
5.052996873855591

>  <fragmenstein_outcome>  (549) 
too moved

>  <fragmenstein_mode>  (549) 
expansion

>  <fragmenstein_error>  (549) 


$$$$
C3527-P120
     RDKit          3D

 69 72  0  0  0  0  0  0  0  0999 V2000
   14.3706   -3.4200   19.5821 C   0  0  0  0  0  0  0  0  0  0  0  0
   15.5331   -2.7649   18.8942 C   0  0  0  0  0  0  0  0  0  0  0  0
   16.3657   -3.5109   18.0868 C   0  0  0  0  0  0  0  0  0  0  0  0
   17.4703   -2.8568   17.6146 C   0  0  0  0  0  0  0  0  0  0  0  0
   18.3863   -3.5058   16.8343 O   0  0  0  0  0  0  0  0  0  0  0  0
   17.7535   -1.5797   17.8980 N   0  0  0  0  0  0  0  0  0  0  0  0
   16.8455   -0.9022   18.6306 C   0  0  0  0  0  0  0  0  0  0  0  0
   17.1598    0.5183   19.0148 C   0  0  0  0  0  0  0  0  0  0  0  0
   16.1017    1.5421   18.6369 C   0  0  0  0  0  0  0  0  0  0  0  0
   15.8052    1.6034   17.2206 N   0  0  0  0  0  0  0  0  0  0  0  0
   16.9308    1.7594   16.0017 S   0  0  0  0  0  0  0  0  0  0  0  0
   18.1152    2.3135   16.6001 O   0  0  0  0  0  0  0  0  0  0  0  0
   16.0779    2.3551   14.9167 N   0  0  0  0  0  0  0  0  0  0  0  0
   16.1931    3.7118   14.4962 C   0  0  0  0  0  0  0  0  0  0  0  0
   15.6448    3.8786   13.1636 N   0  0  0  0  0  0  0  0  0  0  0  0
   14.3251    3.3278   12.8835 C   0  0  0  0  0  0  0  0  0  0  0  0
   14.0515    3.9185   11.6098 O   0  0  0  0  0  0  0  0  0  0  0  0
   13.1684    3.7937   13.7763 C   0  0  0  0  0  0  0  0  0  0  0  0
   12.8962    2.8739   14.9544 C   0  0  0  0  0  0  0  0  0  0  0  0
   12.6306    1.4776   14.6003 N   0  0  0  0  0  0  0  0  0  0  0  0
   13.0293    0.5992   15.7064 C   0  0  0  0  0  0  0  0  0  0  0  0
   12.4924   -0.7979   15.6246 C   0  0  0  0  0  0  0  0  0  0  0  0
   13.0619   -1.8936   16.3582 C   0  0  0  0  0  0  0  0  0  0  0  0
   12.4431   -3.0945   16.1135 C   0  0  0  0  0  0  0  0  0  0  0  0
   11.1726   -2.9132   15.0017 S   0  0  0  0  0  0  0  0  0  0  0  0
   11.4018   -1.2299   14.9004 C   0  0  0  0  0  0  0  0  0  0  0  0
   13.1053    1.0903   13.2662 C   0  0  0  0  0  0  0  0  0  0  0  0
   14.3168    1.8035   12.6557 C   0  0  0  0  0  0  0  0  0  0  0  0
   17.2711    0.2188   15.4507 N   0  0  0  0  0  0  0  0  0  0  0  0
   16.2420   -0.7231   15.0284 C   0  0  0  0  0  0  0  0  0  0  0  0
   16.9071   -1.7978   14.2017 C   0  0  0  0  0  0  0  0  0  0  0  0
   18.0924   -1.0630   13.6129 C   0  0  0  0  0  0  0  0  0  0  0  0
   18.4834   -0.0641   14.6927 C   0  0  0  0  0  0  0  0  0  0  0  0
   15.7287   -1.4521   19.1341 N   0  0  0  0  0  0  0  0  0  0  0  0
   13.6494   -3.7928   18.8507 H   0  0  0  0  0  0  0  0  0  0  0  0
   14.7192   -4.2573   20.1952 H   0  0  0  0  0  0  0  0  0  0  0  0
   13.8620   -2.7120   20.2422 H   0  0  0  0  0  0  0  0  0  0  0  0
   16.1858   -4.5571   17.8987 H   0  0  0  0  0  0  0  0  0  0  0  0
   18.1013   -4.4228   16.7178 H   0  0  0  0  0  0  0  0  0  0  0  0
   17.2876    0.5380   20.1048 H   0  0  0  0  0  0  0  0  0  0  0  0
   18.1369    0.7941   18.6036 H   0  0  0  0  0  0  0  0  0  0  0  0
   16.4304    2.5307   18.9786 H   0  0  0  0  0  0  0  0  0  0  0  0
   15.1696    1.3222   19.1709 H   0  0  0  0  0  0  0  0  0  0  0  0
   15.1441    2.3448   17.0480 H   0  0  0  0  0  0  0  0  0  0  0  0
   17.2433    4.0228   14.4618 H   0  0  0  0  0  0  0  0  0  0  0  0
   15.6877    4.3747   15.2072 H   0  0  0  0  0  0  0  0  0  0  0  0
   15.5849    4.8778   12.9884 H   0  0  0  0  0  0  0  0  0  0  0  0
   14.8576    3.7334   11.0969 H   0  0  0  0  0  0  0  0  0  0  0  0
   13.3522    4.8146   14.1366 H   0  0  0  0  0  0  0  0  0  0  0  0
   12.2494    3.8777   13.1775 H   0  0  0  0  0  0  0  0  0  0  0  0
   12.0130    3.2522   15.4851 H   0  0  0  0  0  0  0  0  0  0  0  0
   13.7139    2.9698   15.6692 H   0  0  0  0  0  0  0  0  0  0  0  0
   12.6638    1.0181   16.6526 H   0  0  0  0  0  0  0  0  0  0  0  0
   14.1077    0.5573   15.7751 H   0  0  0  0  0  0  0  0  0  0  0  0
   13.8969   -1.7810   17.0323 H   0  0  0  0  0  0  0  0  0  0  0  0
   12.6739   -4.0666   16.5247 H   0  0  0  0  0  0  0  0  0  0  0  0
   10.7520   -0.6348   14.2716 H   0  0  0  0  0  0  0  0  0  0  0  0
   13.2714    0.0096   13.1879 H   0  0  0  0  0  0  0  0  0  0  0  0
   12.2599    1.2798   12.5896 H   0  0  0  0  0  0  0  0  0  0  0  0
   14.3157    1.5846   11.5781 H   0  0  0  0  0  0  0  0  0  0  0  0
   15.2287    1.3237   13.0070 H   0  0  0  0  0  0  0  0  0  0  0  0
   15.5056   -0.2405   14.3887 H   0  0  0  0  0  0  0  0  0  0  0  0
   15.7236   -1.1564   15.8811 H   0  0  0  0  0  0  0  0  0  0  0  0
   16.2470   -2.2019   13.4280 H   0  0  0  0  0  0  0  0  0  0  0  0
   17.2473   -2.6300   14.8183 H   0  0  0  0  0  0  0  0  0  0  0  0
   17.7816   -0.5295   12.7061 H   0  0  0  0  0  0  0  0  0  0  0  0
   18.9117   -1.7380   13.3492 H   0  0  0  0  0  0  0  0  0  0  0  0
   18.9188    0.8317   14.2366 H   0  0  0  0  0  0  0  0  0  0  0  0
   19.2334   -0.4991   15.3624 H   0  0  0  0  0  0  0  0  0  0  0  0
  1  2  1  0
  2  3  2  0
  3  4  1  0
  4  5  1  0
  4  6  2  0
  6  7  1  0
  7  8  1  0
  8  9  1  0
  9 10  1  0
 10 11  1  0
 11 12  2  0
 11 13  2  0
 13 14  1  0
 14 15  1  0
 15 16  1  0
 16 17  1  0
 16 18  1  0
 18 19  1  0
 19 20  1  0
 20 21  1  0
 21 22  1  0
 22 23  1  0
 23 24  2  0
 24 25  1  0
 25 26  1  0
 20 27  1  0
 27 28  1  0
 11 29  1  0
 29 30  1  0
 30 31  1  0
 31 32  1  0
 32 33  1  0
  7 34  2  0
 34  2  1  0
 28 16  1  0
 33 29  1  0
 26 22  2  0
  1 35  1  0
  1 36  1  0
  1 37  1  0
  3 38  1  0
  5 39  1  0
  8 40  1  0
  8 41  1  0
  9 42  1  0
  9 43  1  0
 10 44  1  0
 14 45  1  0
 14 46  1  0
 15 47  1  0
 17 48  1  0
 18 49  1  0
 18 50  1  0
 19 51  1  0
 19 52  1  0
 21 53  1  0
 21 54  1  0
 23 55  1  0
 24 56  1  0
 26 57  1  0
 27 58  1  0
 27 59  1  0
 28 60  1  0
 28 61  1  0
 30 62  1  0
 30 63  1  0
 31 64  1  0
 31 65  1  0
 32 66  1  0
 32 67  1  0
 33 68  1  0
 33 69  1  0
M  END
>  <Energy>  (550) 
-327.23992230642637

>  <compound_id>  (550) 
3527

>  <target_id>  (550) 
1

>  <reference_id>  (550) 
120

>  <inspiration_ids>  (550) 
[120, 124]

>  <energy_score>  (550) 
-80.29095844466138

>  <distance_score>  (550) 
1.8170641156690486

>  <path>  (550) 
/opt/xchem-fragalysis-2/maxwin/BulkDock/SCRATCH/505734/C3527-P120/C3527-P120.minimised.mol

>  <scratch_subdir>  (550) 
/opt/xchem-fragalysis-2/maxwin/BulkDock/SCRATCH/505734/C3527-P120

>  <fragmenstein_runtime>  (550) 
2.9969048500061035

>  <fragmenstein_outcome>  (550) 
too moved

>  <fragmenstein_mode>  (550) 
expansion

>  <fragmenstein_error>  (550) 


$$$$
C3527-P124
     RDKit          3D

 69 72  0  0  0  0  0  0  0  0999 V2000
   14.3043   -3.6046   19.5488 C   0  0  0  0  0  0  0  0  0  0  0  0
   15.4185   -2.8861   18.8455 C   0  0  0  0  0  0  0  0  0  0  0  0
   16.3124   -3.6231   18.1013 C   0  0  0  0  0  0  0  0  0  0  0  0
   17.4101   -2.9420   17.6659 C   0  0  0  0  0  0  0  0  0  0  0  0
   18.4107   -3.5972   17.0062 O   0  0  0  0  0  0  0  0  0  0  0  0
   17.6251   -1.6463   17.9146 N   0  0  0  0  0  0  0  0  0  0  0  0
   16.6547   -0.9774   18.5674 C   0  0  0  0  0  0  0  0  0  0  0  0
   16.8939    0.4749   18.8869 C   0  0  0  0  0  0  0  0  0  0  0  0
   16.0826    1.4411   18.0455 C   0  0  0  0  0  0  0  0  0  0  0  0
   16.2009    1.2414   16.6108 N   0  0  0  0  0  0  0  0  0  0  0  0
   17.6085    1.3253   15.7152 S   0  0  0  0  0  0  0  0  0  0  0  0
   18.6369    1.8039   16.5990 O   0  0  0  0  0  0  0  0  0  0  0  0
   17.0959    1.9695   14.4528 N   0  0  0  0  0  0  0  0  0  0  0  0
   17.2537    3.3612   14.1610 C   0  0  0  0  0  0  0  0  0  0  0  0
   16.5947    3.7023   12.9001 N   0  0  0  0  0  0  0  0  0  0  0  0
   15.2384    3.1850   12.7137 C   0  0  0  0  0  0  0  0  0  0  0  0
   14.7062    4.0125   11.6768 O   0  0  0  0  0  0  0  0  0  0  0  0
   14.3109    3.4073   13.9131 C   0  0  0  0  0  0  0  0  0  0  0  0
   13.0119    2.6328   13.7777 C   0  0  0  0  0  0  0  0  0  0  0  0
   13.1835    1.2013   13.4989 N   0  0  0  0  0  0  0  0  0  0  0  0
   13.7968    0.4522   14.6021 C   0  0  0  0  0  0  0  0  0  0  0  0
   13.2186   -0.9323   14.7775 C   0  0  0  0  0  0  0  0  0  0  0  0
   13.8214   -1.9561   15.5928 C   0  0  0  0  0  0  0  0  0  0  0  0
   12.9892   -3.0337   15.8003 C   0  0  0  0  0  0  0  0  0  0  0  0
   11.5168   -2.8665   14.9590 S   0  0  0  0  0  0  0  0  0  0  0  0
   11.9947   -1.3683   14.3069 C   0  0  0  0  0  0  0  0  0  0  0  0
   13.8836    1.0405   12.2285 C   0  0  0  0  0  0  0  0  0  0  0  0
   15.2375    1.7452   12.1476 C   0  0  0  0  0  0  0  0  0  0  0  0
   17.9517   -0.2547   15.2667 N   0  0  0  0  0  0  0  0  0  0  0  0
   17.3026   -0.9058   14.1336 C   0  0  0  0  0  0  0  0  0  0  0  0
   17.8891   -2.2932   14.1018 C   0  0  0  0  0  0  0  0  0  0  0  0
   19.3450   -2.0237   14.4390 C   0  0  0  0  0  0  0  0  0  0  0  0
   19.3350   -0.7303   15.2547 C   0  0  0  0  0  0  0  0  0  0  0  0
   15.5316   -1.5519   19.0307 N   0  0  0  0  0  0  0  0  0  0  0  0
   13.5088   -3.8603   18.8451 H   0  0  0  0  0  0  0  0  0  0  0  0
   14.6737   -4.5275   20.0091 H   0  0  0  0  0  0  0  0  0  0  0  0
   13.9012   -2.9869   20.3538 H   0  0  0  0  0  0  0  0  0  0  0  0
   16.1970   -4.6859   17.9624 H   0  0  0  0  0  0  0  0  0  0  0  0
   18.1483   -4.5190   16.8760 H   0  0  0  0  0  0  0  0  0  0  0  0
   16.6521    0.6345   19.9453 H   0  0  0  0  0  0  0  0  0  0  0  0
   17.9651    0.6860   18.7943 H   0  0  0  0  0  0  0  0  0  0  0  0
   16.3645    2.4699   18.2977 H   0  0  0  0  0  0  0  0  0  0  0  0
   15.0241    1.3357   18.3092 H   0  0  0  0  0  0  0  0  0  0  0  0
   15.5890    1.8841   16.1370 H   0  0  0  0  0  0  0  0  0  0  0  0
   18.3168    3.6090   14.0682 H   0  0  0  0  0  0  0  0  0  0  0  0
   16.8542    3.9803   14.9727 H   0  0  0  0  0  0  0  0  0  0  0  0
   16.5240    4.7161   12.8769 H   0  0  0  0  0  0  0  0  0  0  0  0
   15.3811    3.9791   10.9771 H   0  0  0  0  0  0  0  0  0  0  0  0
   14.7652    3.1213   14.8592 H   0  0  0  0  0  0  0  0  0  0  0  0
   14.0695    4.4747   14.0085 H   0  0  0  0  0  0  0  0  0  0  0  0
   12.4049    3.0747   12.9760 H   0  0  0  0  0  0  0  0  0  0  0  0
   12.4306    2.8031   14.6862 H   0  0  0  0  0  0  0  0  0  0  0  0
   13.6411    0.9795   15.5466 H   0  0  0  0  0  0  0  0  0  0  0  0
   14.8686    0.3941   14.4712 H   0  0  0  0  0  0  0  0  0  0  0  0
   14.7903   -1.8515   16.0652 H   0  0  0  0  0  0  0  0  0  0  0  0
   13.1725   -3.9144   16.3979 H   0  0  0  0  0  0  0  0  0  0  0  0
   11.3111   -0.8135   13.6781 H   0  0  0  0  0  0  0  0  0  0  0  0
   14.0086   -0.0236   11.9910 H   0  0  0  0  0  0  0  0  0  0  0  0
   13.2400    1.4345   11.4313 H   0  0  0  0  0  0  0  0  0  0  0  0
   15.5437    1.7604   11.0923 H   0  0  0  0  0  0  0  0  0  0  0  0
   15.9609    1.0995   12.6368 H   0  0  0  0  0  0  0  0  0  0  0  0
   17.5333   -0.3919   13.1937 H   0  0  0  0  0  0  0  0  0  0  0  0
   16.2271   -0.9878   14.2429 H   0  0  0  0  0  0  0  0  0  0  0  0
   17.7795   -2.7700   13.1230 H   0  0  0  0  0  0  0  0  0  0  0  0
   17.4104   -2.9391   14.8404 H   0  0  0  0  0  0  0  0  0  0  0  0
   19.9146   -1.8693   13.5143 H   0  0  0  0  0  0  0  0  0  0  0  0
   19.8071   -2.8582   14.9729 H   0  0  0  0  0  0  0  0  0  0  0  0
   20.0013    0.0012   14.7818 H   0  0  0  0  0  0  0  0  0  0  0  0
   19.6996   -0.9043   16.2716 H   0  0  0  0  0  0  0  0  0  0  0  0
  1  2  1  0
  2  3  2  0
  3  4  1  0
  4  5  1  0
  4  6  2  0
  6  7  1  0
  7  8  1  0
  8  9  1  0
  9 10  1  0
 10 11  1  0
 11 12  2  0
 11 13  2  0
 13 14  1  0
 14 15  1  0
 15 16  1  0
 16 17  1  0
 16 18  1  0
 18 19  1  0
 19 20  1  0
 20 21  1  0
 21 22  1  0
 22 23  1  0
 23 24  2  0
 24 25  1  0
 25 26  1  0
 20 27  1  0
 27 28  1  0
 11 29  1  0
 29 30  1  0
 30 31  1  0
 31 32  1  0
 32 33  1  0
  7 34  2  0
 34  2  1  0
 28 16  1  0
 33 29  1  0
 26 22  2  0
  1 35  1  0
  1 36  1  0
  1 37  1  0
  3 38  1  0
  5 39  1  0
  8 40  1  0
  8 41  1  0
  9 42  1  0
  9 43  1  0
 10 44  1  0
 14 45  1  0
 14 46  1  0
 15 47  1  0
 17 48  1  0
 18 49  1  0
 18 50  1  0
 19 51  1  0
 19 52  1  0
 21 53  1  0
 21 54  1  0
 23 55  1  0
 24 56  1  0
 26 57  1  0
 27 58  1  0
 27 59  1  0
 28 60  1  0
 28 61  1  0
 30 62  1  0
 30 63  1  0
 31 64  1  0
 31 65  1  0
 32 66  1  0
 32 67  1  0
 33 68  1  0
 33 69  1  0
M  END
>  <Energy>  (551) 
-334.82302285291473

>  <compound_id>  (551) 
3527

>  <target_id>  (551) 
1

>  <reference_id>  (551) 
124

>  <inspiration_ids>  (551) 
[120, 124]

>  <energy_score>  (551) 
-87.87405899114799

>  <distance_score>  (551) 
2.016179658429211

>  <path>  (551) 
/opt/xchem-fragalysis-2/maxwin/BulkDock/SCRATCH/505734/C3527-P124/C3527-P124.minimised.mol

>  <scratch_subdir>  (551) 
/opt/xchem-fragalysis-2/maxwin/BulkDock/SCRATCH/505734/C3527-P124

>  <fragmenstein_runtime>  (551) 
3.288079023361206

>  <fragmenstein_outcome>  (551) 
too moved

>  <fragmenstein_mode>  (551) 
expansion

>  <fragmenstein_error>  (551) 


$$$$
C3528-P120
     RDKit          3D

 67 70  0  0  0  0  0  0  0  0999 V2000
   18.1998   -0.7668   16.4787 C   0  0  0  0  0  0  0  0  0  0  0  0
   18.6786   -1.4076   15.2119 C   0  0  0  0  0  0  0  0  0  0  0  0
   19.9790   -1.8414   15.0975 C   0  0  0  0  0  0  0  0  0  0  0  0
   20.2948   -2.4124   13.8953 C   0  0  0  0  0  0  0  0  0  0  0  0
   21.5522   -2.8722   13.6693 O   0  0  0  0  0  0  0  0  0  0  0  0
   19.4619   -2.5794   12.8648 N   0  0  0  0  0  0  0  0  0  0  0  0
   18.2071   -2.1408   13.0737 C   0  0  0  0  0  0  0  0  0  0  0  0
   17.2226   -2.2810   11.9434 C   0  0  0  0  0  0  0  0  0  0  0  0
   17.3962   -1.1312   10.9582 C   0  0  0  0  0  0  0  0  0  0  0  0
   16.4024   -1.1915    9.8937 N   0  0  0  0  0  0  0  0  0  0  0  0
   15.9331    0.2048    9.0701 S   0  0  0  0  0  0  0  0  0  0  0  0
   15.2938   -0.2991    7.8763 O   0  0  0  0  0  0  0  0  0  0  0  0
   15.3329    1.0320   10.1948 N   0  0  0  0  0  0  0  0  0  0  0  0
   14.9717    2.4144   10.0279 C   0  0  0  0  0  0  0  0  0  0  0  0
   13.9226    2.7607   10.9700 N   0  0  0  0  0  0  0  0  0  0  0  0
   14.3609    3.1041   12.3185 C   0  0  0  0  0  0  0  0  0  0  0  0
   15.0768    4.3369   12.2379 O   0  0  0  0  0  0  0  0  0  0  0  0
   13.0830    3.3596   13.1619 C   0  0  0  0  0  0  0  0  0  0  0  0
   13.2029    2.8035   14.5832 C   0  0  0  0  0  0  0  0  0  0  0  0
   13.3997    1.3580   14.5319 N   0  0  0  0  0  0  0  0  0  0  0  0
   13.4725    0.7468   15.8566 C   0  0  0  0  0  0  0  0  0  0  0  0
   12.9742   -0.6728   15.8003 C   0  0  0  0  0  0  0  0  0  0  0  0
   13.5795   -1.7742   16.4954 C   0  0  0  0  0  0  0  0  0  0  0  0
   12.9029   -2.9583   16.3062 C   0  0  0  0  0  0  0  0  0  0  0  0
   11.5596   -2.7680   15.2717 S   0  0  0  0  0  0  0  0  0  0  0  0
   11.8585   -1.0994   15.0979 C   0  0  0  0  0  0  0  0  0  0  0  0
   14.4786    0.9289   13.6222 C   0  0  0  0  0  0  0  0  0  0  0  0
   15.2709    2.1042   13.0545 C   0  0  0  0  0  0  0  0  0  0  0  0
   17.3558    1.0580    8.4960 C   0  0  0  0  0  0  0  0  0  0  0  0
   18.5118    0.4016    8.0043 C   0  0  0  0  0  0  0  0  0  0  0  0
   19.3662    1.4129    7.6334 C   0  0  0  0  0  0  0  0  0  0  0  0
   18.7045    2.5769    7.8886 N   0  0  0  0  0  0  0  0  0  0  0  0
   19.1920    3.9170    7.6661 C   0  0  0  0  0  0  0  0  0  0  0  0
   17.4669    2.3977    8.3851 N   0  0  0  0  0  0  0  0  0  0  0  0
   17.7866   -1.5419   14.2074 N   0  0  0  0  0  0  0  0  0  0  0  0
   18.2886   -1.4678   17.3145 H   0  0  0  0  0  0  0  0  0  0  0  0
   17.1490   -0.4708   16.3924 H   0  0  0  0  0  0  0  0  0  0  0  0
   18.7886    0.1297   16.6961 H   0  0  0  0  0  0  0  0  0  0  0  0
   20.7059   -1.7430   15.8901 H   0  0  0  0  0  0  0  0  0  0  0  0
   21.4482   -3.2227   12.7665 H   0  0  0  0  0  0  0  0  0  0  0  0
   17.3879   -3.2389   11.4374 H   0  0  0  0  0  0  0  0  0  0  0  0
   16.2036   -2.2926   12.3491 H   0  0  0  0  0  0  0  0  0  0  0  0
   17.3158   -0.1858   11.5073 H   0  0  0  0  0  0  0  0  0  0  0  0
   18.4025   -1.1508   10.5239 H   0  0  0  0  0  0  0  0  0  0  0  0
   16.6121   -1.9051    9.2034 H   0  0  0  0  0  0  0  0  0  0  0  0
   15.8298    3.0815   10.1428 H   0  0  0  0  0  0  0  0  0  0  0  0
   14.5678    2.5712    9.0201 H   0  0  0  0  0  0  0  0  0  0  0  0
   13.3899    3.5278   10.5841 H   0  0  0  0  0  0  0  0  0  0  0  0
   14.4631    4.9982   11.8857 H   0  0  0  0  0  0  0  0  0  0  0  0
   12.8486    4.4302   13.2137 H   0  0  0  0  0  0  0  0  0  0  0  0
   12.2097    2.8775   12.6978 H   0  0  0  0  0  0  0  0  0  0  0  0
   14.0085    3.3075   15.1316 H   0  0  0  0  0  0  0  0  0  0  0  0
   12.2687    3.0274   15.1130 H   0  0  0  0  0  0  0  0  0  0  0  0
   14.4868    0.8034   16.2709 H   0  0  0  0  0  0  0  0  0  0  0  0
   12.8170    1.2763   16.5609 H   0  0  0  0  0  0  0  0  0  0  0  0
   14.4691   -1.6958   17.1080 H   0  0  0  0  0  0  0  0  0  0  0  0
   13.1356   -3.9319   16.7129 H   0  0  0  0  0  0  0  0  0  0  0  0
   11.2101   -0.5053   14.4645 H   0  0  0  0  0  0  0  0  0  0  0  0
   15.1822    0.2498   14.1195 H   0  0  0  0  0  0  0  0  0  0  0  0
   14.0254    0.3555   12.8051 H   0  0  0  0  0  0  0  0  0  0  0  0
   16.0985    1.7558   12.4313 H   0  0  0  0  0  0  0  0  0  0  0  0
   15.7917    2.6190   13.8758 H   0  0  0  0  0  0  0  0  0  0  0  0
   18.6907   -0.6619    7.9286 H   0  0  0  0  0  0  0  0  0  0  0  0
   20.3621    1.3972    7.2123 H   0  0  0  0  0  0  0  0  0  0  0  0
   19.1874    4.4477    8.6214 H   0  0  0  0  0  0  0  0  0  0  0  0
   18.5306    4.4091    6.9487 H   0  0  0  0  0  0  0  0  0  0  0  0
   20.2088    3.8732    7.2682 H   0  0  0  0  0  0  0  0  0  0  0  0
  1  2  1  0
  2  3  2  0
  3  4  1  0
  4  5  1  0
  4  6  2  0
  6  7  1  0
  7  8  1  0
  8  9  1  0
  9 10  1  0
 10 11  1  0
 11 12  2  0
 11 13  2  0
 13 14  1  0
 14 15  1  0
 15 16  1  0
 16 17  1  0
 16 18  1  0
 18 19  1  0
 19 20  1  0
 20 21  1  0
 21 22  1  0
 22 23  1  0
 23 24  2  0
 24 25  1  0
 25 26  1  0
 20 27  1  0
 27 28  1  0
 11 29  1  0
 29 30  1  0
 30 31  2  0
 31 32  1  0
 32 33  1  0
 32 34  1  0
  7 35  2  0
 35  2  1  0
 28 16  1  0
 34 29  2  0
 26 22  2  0
  1 36  1  0
  1 37  1  0
  1 38  1  0
  3 39  1  0
  5 40  1  0
  8 41  1  0
  8 42  1  0
  9 43  1  0
  9 44  1  0
 10 45  1  0
 14 46  1  0
 14 47  1  0
 15 48  1  0
 17 49  1  0
 18 50  1  0
 18 51  1  0
 19 52  1  0
 19 53  1  0
 21 54  1  0
 21 55  1  0
 23 56  1  0
 24 57  1  0
 26 58  1  0
 27 59  1  0
 27 60  1  0
 28 61  1  0
 28 62  1  0
 30 63  1  0
 31 64  1  0
 33 65  1  0
 33 66  1  0
 33 67  1  0
M  END
>  <Energy>  (552) 
-149.94033754728841

>  <compound_id>  (552) 
3528

>  <target_id>  (552) 
1

>  <reference_id>  (552) 
120

>  <inspiration_ids>  (552) 
[120, 146]

>  <energy_score>  (552) 
-134.93553162243865

>  <distance_score>  (552) 
1.2872911020323043

>  <path>  (552) 
/opt/xchem-fragalysis-2/maxwin/BulkDock/SCRATCH/505734/C3528-P120/C3528-P120.minimised.mol

>  <scratch_subdir>  (552) 
/opt/xchem-fragalysis-2/maxwin/BulkDock/SCRATCH/505734/C3528-P120

>  <fragmenstein_runtime>  (552) 
4.556882381439209

>  <fragmenstein_outcome>  (552) 
too moved

>  <fragmenstein_mode>  (552) 
expansion

>  <fragmenstein_error>  (552) 


$$$$
C3528-P146
     RDKit          3D

 67 70  0  0  0  0  0  0  0  0999 V2000
   18.2885   -0.8378   16.6851 C   0  0  0  0  0  0  0  0  0  0  0  0
   19.1002   -1.1849   15.4727 C   0  0  0  0  0  0  0  0  0  0  0  0
   20.0747   -2.1559   15.5559 C   0  0  0  0  0  0  0  0  0  0  0  0
   20.7783   -2.3890   14.4026 C   0  0  0  0  0  0  0  0  0  0  0  0
   21.7830   -3.3101   14.3609 O   0  0  0  0  0  0  0  0  0  0  0  0
   20.5569   -1.7597   13.2490 N   0  0  0  0  0  0  0  0  0  0  0  0
   19.5626   -0.8646   13.2404 C   0  0  0  0  0  0  0  0  0  0  0  0
   19.2121   -0.2682   11.9034 C   0  0  0  0  0  0  0  0  0  0  0  0
   18.4628   -1.3034   11.0574 C   0  0  0  0  0  0  0  0  0  0  0  0
   18.2829   -0.9416    9.6672 N   0  0  0  0  0  0  0  0  0  0  0  0
   17.0730   -0.0270    8.9659 S   0  0  0  0  0  0  0  0  0  0  0  0
   17.2384   -0.3160    7.5589 O   0  0  0  0  0  0  0  0  0  0  0  0
   15.8084   -0.2269    9.8061 N   0  0  0  0  0  0  0  0  0  0  0  0
   15.5393    0.4652   11.0585 C   0  0  0  0  0  0  0  0  0  0  0  0
   14.8526    1.7218   10.8893 N   0  0  0  0  0  0  0  0  0  0  0  0
   14.5981    2.4546   12.1253 C   0  0  0  0  0  0  0  0  0  0  0  0
   14.4802    3.8170   11.6966 O   0  0  0  0  0  0  0  0  0  0  0  0
   13.2538    2.0207   12.7577 C   0  0  0  0  0  0  0  0  0  0  0  0
   13.4329    1.5124   14.1897 C   0  0  0  0  0  0  0  0  0  0  0  0
   14.5214    0.5373   14.1718 N   0  0  0  0  0  0  0  0  0  0  0  0
   14.5850   -0.4272   15.2703 C   0  0  0  0  0  0  0  0  0  0  0  0
   13.4838   -1.4517   15.2885 C   0  0  0  0  0  0  0  0  0  0  0  0
   13.4440   -2.5131   16.2626 C   0  0  0  0  0  0  0  0  0  0  0  0
   12.3419   -3.3232   16.1319 C   0  0  0  0  0  0  0  0  0  0  0  0
   11.3778   -2.8638   14.8049 S   0  0  0  0  0  0  0  0  0  0  0  0
   12.4265   -1.5832   14.4076 C   0  0  0  0  0  0  0  0  0  0  0  0
   15.8002    1.2469   14.0732 C   0  0  0  0  0  0  0  0  0  0  0  0
   15.7353    2.4790   13.1679 C   0  0  0  0  0  0  0  0  0  0  0  0
   17.4553    1.6768    9.0675 C   0  0  0  0  0  0  0  0  0  0  0  0
   17.0163    2.6362    8.1251 C   0  0  0  0  0  0  0  0  0  0  0  0
   17.5059    3.8343    8.5878 C   0  0  0  0  0  0  0  0  0  0  0  0
   18.1864    3.5476    9.7336 N   0  0  0  0  0  0  0  0  0  0  0  0
   18.8644    4.4874   10.5935 C   0  0  0  0  0  0  0  0  0  0  0  0
   18.1837    2.2379   10.0536 N   0  0  0  0  0  0  0  0  0  0  0  0
   18.8235   -0.5358   14.3209 N   0  0  0  0  0  0  0  0  0  0  0  0
   17.6488   -1.6807   16.9641 H   0  0  0  0  0  0  0  0  0  0  0  0
   17.6493    0.0287   16.4895 H   0  0  0  0  0  0  0  0  0  0  0  0
   18.9442   -0.5889   17.5254 H   0  0  0  0  0  0  0  0  0  0  0  0
   20.2793   -2.6795   16.4785 H   0  0  0  0  0  0  0  0  0  0  0  0
   21.8194   -3.7715   15.2107 H   0  0  0  0  0  0  0  0  0  0  0  0
   18.6149    0.6321   12.0625 H   0  0  0  0  0  0  0  0  0  0  0  0
   20.1389    0.0382   11.4036 H   0  0  0  0  0  0  0  0  0  0  0  0
   19.0364   -2.2394   11.0546 H   0  0  0  0  0  0  0  0  0  0  0  0
   17.5079   -1.5681   11.5259 H   0  0  0  0  0  0  0  0  0  0  0  0
   19.1550   -0.7044    9.2130 H   0  0  0  0  0  0  0  0  0  0  0  0
   14.9108   -0.2100   11.6477 H   0  0  0  0  0  0  0  0  0  0  0  0
   16.4772    0.5883   11.5921 H   0  0  0  0  0  0  0  0  0  0  0  0
   15.4118    2.3344   10.3111 H   0  0  0  0  0  0  0  0  0  0  0  0
   13.9751    4.2968   12.3721 H   0  0  0  0  0  0  0  0  0  0  0  0
   12.5207    2.8369   12.7520 H   0  0  0  0  0  0  0  0  0  0  0  0
   12.7957    1.2166   12.1642 H   0  0  0  0  0  0  0  0  0  0  0  0
   13.6556    2.3765   14.8213 H   0  0  0  0  0  0  0  0  0  0  0  0
   12.4816    1.0964   14.5329 H   0  0  0  0  0  0  0  0  0  0  0  0
   15.5074   -1.0137   15.1440 H   0  0  0  0  0  0  0  0  0  0  0  0
   14.6848    0.0514   16.2445 H   0  0  0  0  0  0  0  0  0  0  0  0
   14.1877   -2.6595   17.0369 H   0  0  0  0  0  0  0  0  0  0  0  0
   12.0696   -4.1760   16.7393 H   0  0  0  0  0  0  0  0  0  0  0  0
   12.2103   -0.9808   13.5358 H   0  0  0  0  0  0  0  0  0  0  0  0
   16.1451    1.5793   15.0619 H   0  0  0  0  0  0  0  0  0  0  0  0
   16.5597    0.5550   13.7034 H   0  0  0  0  0  0  0  0  0  0  0  0
   16.7061    2.6509   12.6858 H   0  0  0  0  0  0  0  0  0  0  0  0
   15.5994    3.3643   13.8075 H   0  0  0  0  0  0  0  0  0  0  0  0
   16.4152    2.4620    7.2424 H   0  0  0  0  0  0  0  0  0  0  0  0
   17.4173    4.8420    8.2059 H   0  0  0  0  0  0  0  0  0  0  0  0
   19.9151    4.1949   10.6627 H   0  0  0  0  0  0  0  0  0  0  0  0
   18.3904    4.4561   11.5777 H   0  0  0  0  0  0  0  0  0  0  0  0
   18.7833    5.4919   10.1712 H   0  0  0  0  0  0  0  0  0  0  0  0
  1  2  1  0
  2  3  2  0
  3  4  1  0
  4  5  1  0
  4  6  2  0
  6  7  1  0
  7  8  1  0
  8  9  1  0
  9 10  1  0
 10 11  1  0
 11 12  2  0
 11 13  2  0
 13 14  1  0
 14 15  1  0
 15 16  1  0
 16 17  1  0
 16 18  1  0
 18 19  1  0
 19 20  1  0
 20 21  1  0
 21 22  1  0
 22 23  1  0
 23 24  2  0
 24 25  1  0
 25 26  1  0
 20 27  1  0
 27 28  1  0
 11 29  1  0
 29 30  1  0
 30 31  2  0
 31 32  1  0
 32 33  1  0
 32 34  1  0
  7 35  2  0
 35  2  1  0
 28 16  1  0
 34 29  2  0
 26 22  2  0
  1 36  1  0
  1 37  1  0
  1 38  1  0
  3 39  1  0
  5 40  1  0
  8 41  1  0
  8 42  1  0
  9 43  1  0
  9 44  1  0
 10 45  1  0
 14 46  1  0
 14 47  1  0
 15 48  1  0
 17 49  1  0
 18 50  1  0
 18 51  1  0
 19 52  1  0
 19 53  1  0
 21 54  1  0
 21 55  1  0
 23 56  1  0
 24 57  1  0
 26 58  1  0
 27 59  1  0
 27 60  1  0
 28 61  1  0
 28 62  1  0
 30 63  1  0
 31 64  1  0
 33 65  1  0
 33 66  1  0
 33 67  1  0
M  END
>  <Energy>  (553) 
-130.3063374883798

>  <compound_id>  (553) 
3528

>  <target_id>  (553) 
1

>  <reference_id>  (553) 
146

>  <inspiration_ids>  (553) 
[120, 146]

>  <energy_score>  (553) 
-109.35790065152798

>  <distance_score>  (553) 
1.414636509462902

>  <path>  (553) 
/opt/xchem-fragalysis-2/maxwin/BulkDock/SCRATCH/505734/C3528-P146/C3528-P146.minimised.mol

>  <scratch_subdir>  (553) 
/opt/xchem-fragalysis-2/maxwin/BulkDock/SCRATCH/505734/C3528-P146

>  <fragmenstein_runtime>  (553) 
3.8074851036071777

>  <fragmenstein_outcome>  (553) 
too moved

>  <fragmenstein_mode>  (553) 
expansion

>  <fragmenstein_error>  (553) 


$$$$
C3528-P120
     RDKit          3D

 67 70  0  0  0  0  0  0  0  0999 V2000
   15.7429    2.6980   22.4678 C   0  0  0  0  0  0  0  0  0  0  0  0
   15.7253    1.5647   21.4882 C   0  0  0  0  0  0  0  0  0  0  0  0
   14.9701    0.4368   21.7370 C   0  0  0  0  0  0  0  0  0  0  0  0
   15.0366   -0.5421   20.7797 C   0  0  0  0  0  0  0  0  0  0  0  0
   14.3429   -1.7081   20.9036 O   0  0  0  0  0  0  0  0  0  0  0  0
   15.7729   -0.4556   19.6683 N   0  0  0  0  0  0  0  0  0  0  0  0
   16.4894    0.6710   19.5113 C   0  0  0  0  0  0  0  0  0  0  0  0
   17.3268    0.7617   18.2603 C   0  0  0  0  0  0  0  0  0  0  0  0
   18.5330    1.6985   18.3789 C   0  0  0  0  0  0  0  0  0  0  0  0
   19.5105    1.5533   17.2982 N   0  0  0  0  0  0  0  0  0  0  0  0
   19.2224    2.0344   15.7048 S   0  0  0  0  0  0  0  0  0  0  0  0
   20.5106    2.4182   15.1789 O   0  0  0  0  0  0  0  0  0  0  0  0
   17.9261    2.8439   15.7149 N   0  0  0  0  0  0  0  0  0  0  0  0
   17.6287    3.6542   14.5541 C   0  0  0  0  0  0  0  0  0  0  0  0
   16.2719    4.1032   14.7615 N   0  0  0  0  0  0  0  0  0  0  0  0
   15.2557    3.3735   14.0092 C   0  0  0  0  0  0  0  0  0  0  0  0
   15.3257    3.8642   12.6768 O   0  0  0  0  0  0  0  0  0  0  0  0
   13.8631    3.7570   14.5526 C   0  0  0  0  0  0  0  0  0  0  0  0
   13.4397    2.7991   15.6606 C   0  0  0  0  0  0  0  0  0  0  0  0
   13.2745    1.4156   15.1790 N   0  0  0  0  0  0  0  0  0  0  0  0
   13.5575    0.4744   16.2763 C   0  0  0  0  0  0  0  0  0  0  0  0
   12.9458   -0.8775   16.0288 C   0  0  0  0  0  0  0  0  0  0  0  0
   13.4180   -2.0791   16.6627 C   0  0  0  0  0  0  0  0  0  0  0  0
   12.6862   -3.1890   16.3084 C   0  0  0  0  0  0  0  0  0  0  0  0
   11.4567   -2.8095   15.1890 S   0  0  0  0  0  0  0  0  0  0  0  0
   11.8581   -1.1543   15.2182 C   0  0  0  0  0  0  0  0  0  0  0  0
   14.0670    1.1304   13.9684 C   0  0  0  0  0  0  0  0  0  0  0  0
   15.4167    1.8403   13.9730 C   0  0  0  0  0  0  0  0  0  0  0  0
   18.7687    0.6071   14.7865 C   0  0  0  0  0  0  0  0  0  0  0  0
   19.0076    0.4332   13.4040 C   0  0  0  0  0  0  0  0  0  0  0  0
   18.4392   -0.7824   13.1013 C   0  0  0  0  0  0  0  0  0  0  0  0
   17.9142   -1.2585   14.2683 N   0  0  0  0  0  0  0  0  0  0  0  0
   17.1560   -2.4752   14.4448 C   0  0  0  0  0  0  0  0  0  0  0  0
   18.1461   -0.4587   15.3267 N   0  0  0  0  0  0  0  0  0  0  0  0
   16.4769    1.7020   20.3766 N   0  0  0  0  0  0  0  0  0  0  0  0
   14.7326    3.0966   22.6031 H   0  0  0  0  0  0  0  0  0  0  0  0
   16.1274    2.3569   23.4340 H   0  0  0  0  0  0  0  0  0  0  0  0
   16.3848    3.5110   22.1134 H   0  0  0  0  0  0  0  0  0  0  0  0
   14.3731    0.3299   22.6312 H   0  0  0  0  0  0  0  0  0  0  0  0
   13.5929   -1.5753   21.5180 H   0  0  0  0  0  0  0  0  0  0  0  0
   16.6739    1.0776   17.4414 H   0  0  0  0  0  0  0  0  0  0  0  0
   17.6787   -0.2518   18.0320 H   0  0  0  0  0  0  0  0  0  0  0  0
   18.2090    2.7429   18.4592 H   0  0  0  0  0  0  0  0  0  0  0  0
   19.0644    1.4802   19.3137 H   0  0  0  0  0  0  0  0  0  0  0  0
   19.7750    0.5760   17.2300 H   0  0  0  0  0  0  0  0  0  0  0  0
   17.7704    3.1311   13.6035 H   0  0  0  0  0  0  0  0  0  0  0  0
   18.2911    4.5268   14.5441 H   0  0  0  0  0  0  0  0  0  0  0  0
   16.1505    3.8951   15.7539 H   0  0  0  0  0  0  0  0  0  0  0  0
   15.4267    4.8249   12.7925 H   0  0  0  0  0  0  0  0  0  0  0  0
   13.8601    4.7889   14.9287 H   0  0  0  0  0  0  0  0  0  0  0  0
   13.1179    3.7548   13.7448 H   0  0  0  0  0  0  0  0  0  0  0  0
   12.4856    3.1324   16.0851 H   0  0  0  0  0  0  0  0  0  0  0  0
   14.1821    2.8543   16.4685 H   0  0  0  0  0  0  0  0  0  0  0  0
   14.6355    0.3758   16.4471 H   0  0  0  0  0  0  0  0  0  0  0  0
   13.1197    0.8479   17.2105 H   0  0  0  0  0  0  0  0  0  0  0  0
   14.2461   -2.1139   17.3636 H   0  0  0  0  0  0  0  0  0  0  0  0
   12.8133   -4.2074   16.6468 H   0  0  0  0  0  0  0  0  0  0  0  0
   11.2866   -0.4592   14.6157 H   0  0  0  0  0  0  0  0  0  0  0  0
   13.4891    1.4502   13.0918 H   0  0  0  0  0  0  0  0  0  0  0  0
   14.2223    0.0538   13.8300 H   0  0  0  0  0  0  0  0  0  0  0  0
   15.9511    1.4771   14.8541 H   0  0  0  0  0  0  0  0  0  0  0  0
   15.9895    1.5313   13.0908 H   0  0  0  0  0  0  0  0  0  0  0  0
   19.5077    1.1118   12.7272 H   0  0  0  0  0  0  0  0  0  0  0  0
   18.3517   -1.3268   12.1710 H   0  0  0  0  0  0  0  0  0  0  0  0
   16.1246   -2.2030   14.6815 H   0  0  0  0  0  0  0  0  0  0  0  0
   17.6023   -3.0475   15.2617 H   0  0  0  0  0  0  0  0  0  0  0  0
   17.1911   -3.0552   13.5207 H   0  0  0  0  0  0  0  0  0  0  0  0
  1  2  1  0
  2  3  2  0
  3  4  1  0
  4  5  1  0
  4  6  2  0
  6  7  1  0
  7  8  1  0
  8  9  1  0
  9 10  1  0
 10 11  1  0
 11 12  2  0
 11 13  2  0
 13 14  1  0
 14 15  1  0
 15 16  1  0
 16 17  1  0
 16 18  1  0
 18 19  1  0
 19 20  1  0
 20 21  1  0
 21 22  1  0
 22 23  1  0
 23 24  2  0
 24 25  1  0
 25 26  1  0
 20 27  1  0
 27 28  1  0
 11 29  1  0
 29 30  1  0
 30 31  2  0
 31 32  1  0
 32 33  1  0
 32 34  1  0
  7 35  2  0
 35  2  1  0
 28 16  1  0
 34 29  2  0
 26 22  2  0
  1 36  1  0
  1 37  1  0
  1 38  1  0
  3 39  1  0
  5 40  1  0
  8 41  1  0
  8 42  1  0
  9 43  1  0
  9 44  1  0
 10 45  1  0
 14 46  1  0
 14 47  1  0
 15 48  1  0
 17 49  1  0
 18 50  1  0
 18 51  1  0
 19 52  1  0
 19 53  1  0
 21 54  1  0
 21 55  1  0
 23 56  1  0
 24 57  1  0
 26 58  1  0
 27 59  1  0
 27 60  1  0
 28 61  1  0
 28 62  1  0
 30 63  1  0
 31 64  1  0
 33 65  1  0
 33 66  1  0
 33 67  1  0
M  END
>  <Energy>  (554) 
-158.24657467368911

>  <compound_id>  (554) 
3528

>  <target_id>  (554) 
1

>  <reference_id>  (554) 
120

>  <inspiration_ids>  (554) 
[120, 184]

>  <energy_score>  (554) 
-91.30120392338908

>  <distance_score>  (554) 
1.5230310295691312

>  <path>  (554) 
/opt/xchem-fragalysis-2/maxwin/BulkDock/SCRATCH/505734/C3528-P120/C3528-P120.minimised.mol

>  <scratch_subdir>  (554) 
/opt/xchem-fragalysis-2/maxwin/BulkDock/SCRATCH/505734/C3528-P120

>  <fragmenstein_runtime>  (554) 
9.490834951400757

>  <fragmenstein_outcome>  (554) 
too moved

>  <fragmenstein_mode>  (554) 
expansion

>  <fragmenstein_error>  (554) 


$$$$
C3528-P184
     RDKit          3D

 67 70  0  0  0  0  0  0  0  0999 V2000
   17.4441    2.4620   23.1043 C   0  0  0  0  0  0  0  0  0  0  0  0
   16.6124    1.7957   22.0624 C   0  0  0  0  0  0  0  0  0  0  0  0
   16.6104    0.4264   21.9253 C   0  0  0  0  0  0  0  0  0  0  0  0
   15.8035   -0.0578   20.9283 C   0  0  0  0  0  0  0  0  0  0  0  0
   15.7122   -1.3999   20.6964 O   0  0  0  0  0  0  0  0  0  0  0  0
   15.0886    0.7094   20.0928 N   0  0  0  0  0  0  0  0  0  0  0  0
   15.1612    2.0361   20.2939 C   0  0  0  0  0  0  0  0  0  0  0  0
   14.6122    2.9479   19.2157 C   0  0  0  0  0  0  0  0  0  0  0  0
   14.2239    4.3387   19.7334 C   0  0  0  0  0  0  0  0  0  0  0  0
   14.2042    5.3775   18.7204 N   0  0  0  0  0  0  0  0  0  0  0  0
   13.0053    5.6506   17.6013 S   0  0  0  0  0  0  0  0  0  0  0  0
   11.7621    5.4501   18.3181 O   0  0  0  0  0  0  0  0  0  0  0  0
   13.4186    4.9729   16.3007 N   0  0  0  0  0  0  0  0  0  0  0  0
   14.7233    5.0954   15.7004 C   0  0  0  0  0  0  0  0  0  0  0  0
   14.6525    4.8884   14.2746 N   0  0  0  0  0  0  0  0  0  0  0  0
   14.4090    3.5529   13.7451 C   0  0  0  0  0  0  0  0  0  0  0  0
   14.4113    3.7534   12.3252 O   0  0  0  0  0  0  0  0  0  0  0  0
   13.0279    2.9643   14.0853 C   0  0  0  0  0  0  0  0  0  0  0  0
   13.1301    1.9632   15.2256 C   0  0  0  0  0  0  0  0  0  0  0  0
   13.9360    0.8147   14.8141 N   0  0  0  0  0  0  0  0  0  0  0  0
   14.1830   -0.1136   15.9143 C   0  0  0  0  0  0  0  0  0  0  0  0
   13.2508   -1.2890   15.7974 C   0  0  0  0  0  0  0  0  0  0  0  0
   13.2772   -2.3957   16.7095 C   0  0  0  0  0  0  0  0  0  0  0  0
   12.3585   -3.3669   16.3890 C   0  0  0  0  0  0  0  0  0  0  0  0
   11.4668   -2.9712   14.9907 S   0  0  0  0  0  0  0  0  0  0  0  0
   12.2805   -1.4868   14.8283 C   0  0  0  0  0  0  0  0  0  0  0  0
   15.0891    1.1127   13.9691 C   0  0  0  0  0  0  0  0  0  0  0  0
   15.5526    2.5667   14.0722 C   0  0  0  0  0  0  0  0  0  0  0  0
   13.0179    7.3441   17.1654 C   0  0  0  0  0  0  0  0  0  0  0  0
   11.8997    8.0498   16.6697 C   0  0  0  0  0  0  0  0  0  0  0  0
   12.3625    9.3261   16.4504 C   0  0  0  0  0  0  0  0  0  0  0  0
   13.6796    9.3205   16.8082 N   0  0  0  0  0  0  0  0  0  0  0  0
   14.5953   10.4353   16.7551 C   0  0  0  0  0  0  0  0  0  0  0  0
   14.1172    8.1222   17.2442 N   0  0  0  0  0  0  0  0  0  0  0  0
   15.8840    2.6051   21.2718 N   0  0  0  0  0  0  0  0  0  0  0  0
   17.1570    2.1121   24.1009 H   0  0  0  0  0  0  0  0  0  0  0  0
   18.5041    2.2434   22.9409 H   0  0  0  0  0  0  0  0  0  0  0  0
   17.3150    3.5491   23.0781 H   0  0  0  0  0  0  0  0  0  0  0  0
   17.2000   -0.2136   22.5647 H   0  0  0  0  0  0  0  0  0  0  0  0
   16.0067   -1.8641   21.4943 H   0  0  0  0  0  0  0  0  0  0  0  0
   13.7480    2.4749   18.7357 H   0  0  0  0  0  0  0  0  0  0  0  0
   15.3967    3.0381   18.4539 H   0  0  0  0  0  0  0  0  0  0  0  0
   13.2603    4.2854   20.2535 H   0  0  0  0  0  0  0  0  0  0  0  0
   14.9368    4.6845   20.4898 H   0  0  0  0  0  0  0  0  0  0  0  0
   15.1152    5.6329   18.3702 H   0  0  0  0  0  0  0  0  0  0  0  0
   15.4332    4.4209   16.1862 H   0  0  0  0  0  0  0  0  0  0  0  0
   15.1314    6.0996   15.8457 H   0  0  0  0  0  0  0  0  0  0  0  0
   13.8990    5.4772   13.9332 H   0  0  0  0  0  0  0  0  0  0  0  0
   14.3339    2.8823   11.9023 H   0  0  0  0  0  0  0  0  0  0  0  0
   12.2991    3.7490   14.3196 H   0  0  0  0  0  0  0  0  0  0  0  0
   12.5950    2.4632   13.2069 H   0  0  0  0  0  0  0  0  0  0  0  0
   12.1215    1.6270   15.4938 H   0  0  0  0  0  0  0  0  0  0  0  0
   13.5611    2.4279   16.1169 H   0  0  0  0  0  0  0  0  0  0  0  0
   15.2091   -0.5022   15.9003 H   0  0  0  0  0  0  0  0  0  0  0  0
   14.0556    0.3617   16.8955 H   0  0  0  0  0  0  0  0  0  0  0  0
   13.9422   -2.4702   17.5633 H   0  0  0  0  0  0  0  0  0  0  0  0
   12.1725   -4.2925   16.9138 H   0  0  0  0  0  0  0  0  0  0  0  0
   12.0236   -0.8275   14.0099 H   0  0  0  0  0  0  0  0  0  0  0  0
   14.8033    0.9038   12.9306 H   0  0  0  0  0  0  0  0  0  0  0  0
   15.9387    0.4496   14.1703 H   0  0  0  0  0  0  0  0  0  0  0  0
   15.9351    2.7083   15.0888 H   0  0  0  0  0  0  0  0  0  0  0  0
   16.3988    2.7238   13.3915 H   0  0  0  0  0  0  0  0  0  0  0  0
   10.9010    7.6712   16.5018 H   0  0  0  0  0  0  0  0  0  0  0  0
   11.8726   10.2155   16.0783 H   0  0  0  0  0  0  0  0  0  0  0  0
   15.4168   10.1735   16.0837 H   0  0  0  0  0  0  0  0  0  0  0  0
   14.9677   10.6225   17.7653 H   0  0  0  0  0  0  0  0  0  0  0  0
   14.0724   11.3183   16.3797 H   0  0  0  0  0  0  0  0  0  0  0  0
  1  2  1  0
  2  3  2  0
  3  4  1  0
  4  5  1  0
  4  6  2  0
  6  7  1  0
  7  8  1  0
  8  9  1  0
  9 10  1  0
 10 11  1  0
 11 12  2  0
 11 13  2  0
 13 14  1  0
 14 15  1  0
 15 16  1  0
 16 17  1  0
 16 18  1  0
 18 19  1  0
 19 20  1  0
 20 21  1  0
 21 22  1  0
 22 23  1  0
 23 24  2  0
 24 25  1  0
 25 26  1  0
 20 27  1  0
 27 28  1  0
 11 29  1  0
 29 30  1  0
 30 31  2  0
 31 32  1  0
 32 33  1  0
 32 34  1  0
  7 35  2  0
 35  2  1  0
 28 16  1  0
 34 29  2  0
 26 22  2  0
  1 36  1  0
  1 37  1  0
  1 38  1  0
  3 39  1  0
  5 40  1  0
  8 41  1  0
  8 42  1  0
  9 43  1  0
  9 44  1  0
 10 45  1  0
 14 46  1  0
 14 47  1  0
 15 48  1  0
 17 49  1  0
 18 50  1  0
 18 51  1  0
 19 52  1  0
 19 53  1  0
 21 54  1  0
 21 55  1  0
 23 56  1  0
 24 57  1  0
 26 58  1  0
 27 59  1  0
 27 60  1  0
 28 61  1  0
 28 62  1  0
 30 63  1  0
 31 64  1  0
 33 65  1  0
 33 66  1  0
 33 67  1  0
M  END
>  <Energy>  (555) 
-135.82405301247769

>  <compound_id>  (555) 
3528

>  <target_id>  (555) 
1

>  <reference_id>  (555) 
184

>  <inspiration_ids>  (555) 
[120, 184]

>  <energy_score>  (555) 
-106.3082131761718

>  <distance_score>  (555) 
1.0643263508633078

>  <path>  (555) 
/opt/xchem-fragalysis-2/maxwin/BulkDock/SCRATCH/505734/C3528-P184/C3528-P184.minimised.mol

>  <scratch_subdir>  (555) 
/opt/xchem-fragalysis-2/maxwin/BulkDock/SCRATCH/505734/C3528-P184

>  <fragmenstein_runtime>  (555) 
6.742889881134033

>  <fragmenstein_outcome>  (555) 
too moved

>  <fragmenstein_mode>  (555) 
expansion

>  <fragmenstein_error>  (555) 


$$$$
C3529-P121
     RDKit          3D

 63 66  0  0  0  0  0  0  0  0999 V2000
  -12.8854    1.1631   38.9284 C   0  0  0  0  0  0  0  0  0  0  0  0
  -13.6374   -0.0078   38.3821 C   0  0  0  0  0  0  0  0  0  0  0  0
  -14.8276    0.1643   37.7276 C   0  0  0  0  0  0  0  0  0  0  0  0
  -15.4506   -0.9941   37.3440 C   0  0  0  0  0  0  0  0  0  0  0  0
  -16.6398   -0.9414   36.6904 O   0  0  0  0  0  0  0  0  0  0  0  0
  -14.9839   -2.2327   37.5172 N   0  0  0  0  0  0  0  0  0  0  0  0
  -13.7557   -2.2919   38.0559 C   0  0  0  0  0  0  0  0  0  0  0  0
  -13.0341   -3.6123   38.0652 C   0  0  0  0  0  0  0  0  0  0  0  0
  -11.5246   -3.3823   37.9369 C   0  0  0  0  0  0  0  0  0  0  0  0
  -11.2099   -2.7874   36.6551 N   0  0  0  0  0  0  0  0  0  0  0  0
  -10.1813   -1.5199   36.4443 S   0  0  0  0  0  0  0  0  0  0  0  0
   -9.9246   -1.0020   37.7540 O   0  0  0  0  0  0  0  0  0  0  0  0
   -9.1673   -2.0337   35.4323 N   0  0  0  0  0  0  0  0  0  0  0  0
   -7.8361   -1.4694   35.5004 C   0  0  0  0  0  0  0  0  0  0  0  0
   -7.0287   -2.1434   34.5105 N   0  0  0  0  0  0  0  0  0  0  0  0
   -5.7415   -1.5697   34.1647 C   0  0  0  0  0  0  0  0  0  0  0  0
   -5.3222   -2.3615   33.0566 O   0  0  0  0  0  0  0  0  0  0  0  0
   -4.6476   -1.6953   35.2314 C   0  0  0  0  0  0  0  0  0  0  0  0
   -4.8437   -0.7478   36.4166 C   0  0  0  0  0  0  0  0  0  0  0  0
   -5.8189    0.3114   36.1266 N   0  0  0  0  0  0  0  0  0  0  0  0
   -5.9513    1.2993   37.1908 C   0  0  0  0  0  0  0  0  0  0  0  0
   -7.0767    0.9460   38.1327 C   0  0  0  0  0  0  0  0  0  0  0  0
   -8.2060    1.8007   38.3882 C   0  0  0  0  0  0  0  0  0  0  0  0
   -9.0211    1.3386   39.3972 C   0  0  0  0  0  0  0  0  0  0  0  0
   -8.4304   -0.1093   40.0807 S   0  0  0  0  0  0  0  0  0  0  0  0
   -7.1391   -0.1643   38.9562 C   0  0  0  0  0  0  0  0  0  0  0  0
   -5.5751    0.9079   34.8153 C   0  0  0  0  0  0  0  0  0  0  0  0
   -5.7712   -0.1136   33.6895 C   0  0  0  0  0  0  0  0  0  0  0  0
  -10.9895   -0.1988   35.6275 C   0  0  0  0  0  0  0  0  0  0  0  0
  -10.4771    1.0844   35.5825 C   0  0  0  0  0  0  0  0  0  0  0  0
  -11.5990    2.1463   34.8385 S   0  0  0  0  0  0  0  0  0  0  0  0
  -12.6650    0.8277   34.5928 C   0  0  0  0  0  0  0  0  0  0  0  0
  -12.2424   -0.3414   35.0217 N   0  0  0  0  0  0  0  0  0  0  0  0
  -13.0939   -1.2230   38.5484 N   0  0  0  0  0  0  0  0  0  0  0  0
  -12.4285    1.7350   38.1165 H   0  0  0  0  0  0  0  0  0  0  0  0
  -12.0964    0.8268   39.6070 H   0  0  0  0  0  0  0  0  0  0  0  0
  -13.5539    1.8185   39.4957 H   0  0  0  0  0  0  0  0  0  0  0  0
  -15.2758    1.1311   37.5568 H   0  0  0  0  0  0  0  0  0  0  0  0
  -16.7302   -1.8836   36.4544 H   0  0  0  0  0  0  0  0  0  0  0  0
  -13.4013   -4.2551   37.2580 H   0  0  0  0  0  0  0  0  0  0  0  0
  -13.2499   -4.1169   39.0135 H   0  0  0  0  0  0  0  0  0  0  0  0
  -11.1854   -2.7601   38.7736 H   0  0  0  0  0  0  0  0  0  0  0  0
  -10.9660   -4.3059   38.0682 H   0  0  0  0  0  0  0  0  0  0  0  0
  -11.1714   -3.4431   35.8901 H   0  0  0  0  0  0  0  0  0  0  0  0
   -7.4302   -1.6509   36.4972 H   0  0  0  0  0  0  0  0  0  0  0  0
   -7.9343   -0.4041   35.2856 H   0  0  0  0  0  0  0  0  0  0  0  0
   -7.6199   -2.1489   33.6815 H   0  0  0  0  0  0  0  0  0  0  0  0
   -5.6571   -3.2438   33.2966 H   0  0  0  0  0  0  0  0  0  0  0  0
   -3.6788   -1.4702   34.7610 H   0  0  0  0  0  0  0  0  0  0  0  0
   -4.5429   -2.7297   35.5703 H   0  0  0  0  0  0  0  0  0  0  0  0
   -3.8699   -0.3217   36.6906 H   0  0  0  0  0  0  0  0  0  0  0  0
   -5.1737   -1.3432   37.2720 H   0  0  0  0  0  0  0  0  0  0  0  0
   -5.0181    1.4193   37.7560 H   0  0  0  0  0  0  0  0  0  0  0  0
   -6.1711    2.2928   36.7772 H   0  0  0  0  0  0  0  0  0  0  0  0
   -8.3871    2.7391   37.8790 H   0  0  0  0  0  0  0  0  0  0  0  0
   -9.9148    1.7966   39.7935 H   0  0  0  0  0  0  0  0  0  0  0  0
   -6.4416   -0.9849   39.0284 H   0  0  0  0  0  0  0  0  0  0  0  0
   -6.2604    1.7435   34.6496 H   0  0  0  0  0  0  0  0  0  0  0  0
   -4.5608    1.3260   34.7684 H   0  0  0  0  0  0  0  0  0  0  0  0
   -4.9830    0.0522   32.9460 H   0  0  0  0  0  0  0  0  0  0  0  0
   -6.7131    0.0637   33.1588 H   0  0  0  0  0  0  0  0  0  0  0  0
   -9.5336    1.4362   35.9694 H   0  0  0  0  0  0  0  0  0  0  0  0
  -13.6248    0.9460   34.1016 H   0  0  0  0  0  0  0  0  0  0  0  0
  1  2  1  0
  2  3  2  0
  3  4  1  0
  4  5  1  0
  4  6  2  0
  6  7  1  0
  7  8  1  0
  8  9  1  0
  9 10  1  0
 10 11  1  0
 11 12  2  0
 11 13  2  0
 13 14  1  0
 14 15  1  0
 15 16  1  0
 16 17  1  0
 16 18  1  0
 18 19  1  0
 19 20  1  0
 20 21  1  0
 21 22  1  0
 22 23  1  0
 23 24  2  0
 24 25  1  0
 25 26  1  0
 20 27  1  0
 27 28  1  0
 11 29  1  0
 29 30  2  0
 30 31  1  0
 31 32  1  0
 32 33  2  0
  7 34  2  0
 34  2  1  0
 28 16  1  0
 33 29  1  0
 26 22  2  0
  1 35  1  0
  1 36  1  0
  1 37  1  0
  3 38  1  0
  5 39  1  0
  8 40  1  0
  8 41  1  0
  9 42  1  0
  9 43  1  0
 10 44  1  0
 14 45  1  0
 14 46  1  0
 15 47  1  0
 17 48  1  0
 18 49  1  0
 18 50  1  0
 19 51  1  0
 19 52  1  0
 21 53  1  0
 21 54  1  0
 23 55  1  0
 24 56  1  0
 26 57  1  0
 27 58  1  0
 27 59  1  0
 28 60  1  0
 28 61  1  0
 30 62  1  0
 32 63  1  0
M  END
>  <Energy>  (556) 
-170.79423608693099

>  <compound_id>  (556) 
3529

>  <target_id>  (556) 
1

>  <reference_id>  (556) 
121

>  <inspiration_ids>  (556) 
[121, 7]

>  <energy_score>  (556) 
-108.7687527336995

>  <distance_score>  (556) 
2.1114581365530576

>  <path>  (556) 
/opt/xchem-fragalysis-2/maxwin/BulkDock/SCRATCH/505734/C3529-P121/C3529-P121.minimised.mol

>  <scratch_subdir>  (556) 
/opt/xchem-fragalysis-2/maxwin/BulkDock/SCRATCH/505734/C3529-P121

>  <fragmenstein_runtime>  (556) 
4.384357690811157

>  <fragmenstein_outcome>  (556) 
too moved

>  <fragmenstein_mode>  (556) 
expansion

>  <fragmenstein_error>  (556) 


$$$$
C3529-P7
     RDKit          3D

 63 66  0  0  0  0  0  0  0  0999 V2000
  -12.0411   -1.2047   41.3508 C   0  0  0  0  0  0  0  0  0  0  0  0
  -12.7507   -1.0902   40.0352 C   0  0  0  0  0  0  0  0  0  0  0  0
  -13.2407    0.1267   39.6105 C   0  0  0  0  0  0  0  0  0  0  0  0
  -13.9369    0.1021   38.4339 C   0  0  0  0  0  0  0  0  0  0  0  0
  -14.5161    1.2359   37.9376 O   0  0  0  0  0  0  0  0  0  0  0  0
  -14.0913   -0.9893   37.6845 N   0  0  0  0  0  0  0  0  0  0  0  0
  -13.5585   -2.1236   38.1652 C   0  0  0  0  0  0  0  0  0  0  0  0
  -13.4868   -3.3110   37.2612 C   0  0  0  0  0  0  0  0  0  0  0  0
  -12.0585   -3.4235   36.7169 C   0  0  0  0  0  0  0  0  0  0  0  0
  -11.6959   -2.3170   35.8447 N   0  0  0  0  0  0  0  0  0  0  0  0
  -10.5239   -1.2032   36.3320 S   0  0  0  0  0  0  0  0  0  0  0  0
  -10.5608   -1.1981   37.7648 O   0  0  0  0  0  0  0  0  0  0  0  0
   -9.3793   -1.5619   35.3974 N   0  0  0  0  0  0  0  0  0  0  0  0
   -8.0706   -0.9709   35.4782 C   0  0  0  0  0  0  0  0  0  0  0  0
   -7.5271   -1.1253   34.1540 N   0  0  0  0  0  0  0  0  0  0  0  0
   -6.1118   -0.9480   33.9070 C   0  0  0  0  0  0  0  0  0  0  0  0
   -5.8866   -1.6583   32.6946 O   0  0  0  0  0  0  0  0  0  0  0  0
   -5.0214   -1.4266   34.8709 C   0  0  0  0  0  0  0  0  0  0  0  0
   -4.8401   -0.5407   36.1042 C   0  0  0  0  0  0  0  0  0  0  0  0
   -5.8338    0.5249   36.1318 N   0  0  0  0  0  0  0  0  0  0  0  0
   -5.9030    1.2738   37.3757 C   0  0  0  0  0  0  0  0  0  0  0  0
   -7.0470    0.7591   38.2162 C   0  0  0  0  0  0  0  0  0  0  0  0
   -8.1860    1.5438   38.6072 C   0  0  0  0  0  0  0  0  0  0  0  0
   -9.0567    0.8619   39.4270 C   0  0  0  0  0  0  0  0  0  0  0  0
   -8.4830   -0.7020   39.7993 S   0  0  0  0  0  0  0  0  0  0  0  0
   -7.1278   -0.4996   38.7849 C   0  0  0  0  0  0  0  0  0  0  0  0
   -5.8167    1.3611   34.9302 C   0  0  0  0  0  0  0  0  0  0  0  0
   -5.8126    0.5284   33.6476 C   0  0  0  0  0  0  0  0  0  0  0  0
  -11.1416    0.3811   35.8773 C   0  0  0  0  0  0  0  0  0  0  0  0
  -10.4324    1.5637   35.9313 C   0  0  0  0  0  0  0  0  0  0  0  0
  -11.4295    2.8830   35.4749 S   0  0  0  0  0  0  0  0  0  0  0  0
  -12.7355    1.7989   35.2507 C   0  0  0  0  0  0  0  0  0  0  0  0
  -12.4742    0.5240   35.4441 N   0  0  0  0  0  0  0  0  0  0  0  0
  -12.9241   -2.2277   39.3388 N   0  0  0  0  0  0  0  0  0  0  0  0
  -11.4708   -2.1377   41.4040 H   0  0  0  0  0  0  0  0  0  0  0  0
  -12.7696   -1.1965   42.1673 H   0  0  0  0  0  0  0  0  0  0  0  0
  -11.3434   -0.3739   41.4910 H   0  0  0  0  0  0  0  0  0  0  0  0
  -13.1046    1.0248   40.1934 H   0  0  0  0  0  0  0  0  0  0  0  0
  -14.5545    1.8802   38.6587 H   0  0  0  0  0  0  0  0  0  0  0  0
  -14.2183   -3.2192   36.4544 H   0  0  0  0  0  0  0  0  0  0  0  0
  -13.7603   -4.2039   37.8307 H   0  0  0  0  0  0  0  0  0  0  0  0
  -11.3398   -3.5476   37.5363 H   0  0  0  0  0  0  0  0  0  0  0  0
  -11.9612   -4.3338   36.1261 H   0  0  0  0  0  0  0  0  0  0  0  0
  -12.5206   -1.7544   35.6408 H   0  0  0  0  0  0  0  0  0  0  0  0
   -7.5005   -1.5219   36.2269 H   0  0  0  0  0  0  0  0  0  0  0  0
   -8.1565    0.0803   35.7250 H   0  0  0  0  0  0  0  0  0  0  0  0
   -7.8493   -2.0410   33.8827 H   0  0  0  0  0  0  0  0  0  0  0  0
   -6.7142   -1.5200   32.1998 H   0  0  0  0  0  0  0  0  0  0  0  0
   -4.0608   -1.4463   34.3333 H   0  0  0  0  0  0  0  0  0  0  0  0
   -5.1771   -2.4691   35.1223 H   0  0  0  0  0  0  0  0  0  0  0  0
   -3.8270   -0.1185   36.1111 H   0  0  0  0  0  0  0  0  0  0  0  0
   -4.9135   -1.1749   36.9930 H   0  0  0  0  0  0  0  0  0  0  0  0
   -4.9660    1.2115   37.9438 H   0  0  0  0  0  0  0  0  0  0  0  0
   -6.0672    2.3433   37.1885 H   0  0  0  0  0  0  0  0  0  0  0  0
   -8.3491    2.5725   38.3086 H   0  0  0  0  0  0  0  0  0  0  0  0
   -9.9853    1.2130   39.8521 H   0  0  0  0  0  0  0  0  0  0  0  0
   -6.4142   -1.3068   38.7133 H   0  0  0  0  0  0  0  0  0  0  0  0
   -6.7090    1.9994   34.9254 H   0  0  0  0  0  0  0  0  0  0  0  0
   -4.9480    2.0315   34.9313 H   0  0  0  0  0  0  0  0  0  0  0  0
   -4.8388    0.6248   33.1489 H   0  0  0  0  0  0  0  0  0  0  0  0
   -6.5418    0.9256   32.9384 H   0  0  0  0  0  0  0  0  0  0  0  0
   -9.4056    1.7310   36.2051 H   0  0  0  0  0  0  0  0  0  0  0  0
  -13.7172    2.1487   34.9544 H   0  0  0  0  0  0  0  0  0  0  0  0
  1  2  1  0
  2  3  2  0
  3  4  1  0
  4  5  1  0
  4  6  2  0
  6  7  1  0
  7  8  1  0
  8  9  1  0
  9 10  1  0
 10 11  1  0
 11 12  2  0
 11 13  2  0
 13 14  1  0
 14 15  1  0
 15 16  1  0
 16 17  1  0
 16 18  1  0
 18 19  1  0
 19 20  1  0
 20 21  1  0
 21 22  1  0
 22 23  1  0
 23 24  2  0
 24 25  1  0
 25 26  1  0
 20 27  1  0
 27 28  1  0
 11 29  1  0
 29 30  2  0
 30 31  1  0
 31 32  1  0
 32 33  2  0
  7 34  2  0
 34  2  1  0
 28 16  1  0
 33 29  1  0
 26 22  2  0
  1 35  1  0
  1 36  1  0
  1 37  1  0
  3 38  1  0
  5 39  1  0
  8 40  1  0
  8 41  1  0
  9 42  1  0
  9 43  1  0
 10 44  1  0
 14 45  1  0
 14 46  1  0
 15 47  1  0
 17 48  1  0
 18 49  1  0
 18 50  1  0
 19 51  1  0
 19 52  1  0
 21 53  1  0
 21 54  1  0
 23 55  1  0
 24 56  1  0
 26 57  1  0
 27 58  1  0
 27 59  1  0
 28 60  1  0
 28 61  1  0
 30 62  1  0
 32 63  1  0
M  END
>  <Energy>  (557) 
-156.37918055667154

>  <compound_id>  (557) 
3529

>  <target_id>  (557) 
1

>  <reference_id>  (557) 
7

>  <inspiration_ids>  (557) 
[121, 7]

>  <energy_score>  (557) 
-94.35369720343911

>  <distance_score>  (557) 
2.111692993756046

>  <path>  (557) 
/opt/xchem-fragalysis-2/maxwin/BulkDock/SCRATCH/505734/C3529-P7/C3529-P7.minimised.mol

>  <scratch_subdir>  (557) 
/opt/xchem-fragalysis-2/maxwin/BulkDock/SCRATCH/505734/C3529-P7

>  <fragmenstein_runtime>  (557) 
4.249889612197876

>  <fragmenstein_outcome>  (557) 
too moved

>  <fragmenstein_mode>  (557) 
expansion

>  <fragmenstein_error>  (557) 


$$$$
C3530-P121
     RDKit          3D

 65 68  0  0  0  0  0  0  0  0999 V2000
    4.5831   -4.0446   33.5092 N   0  0  0  0  0  0  0  0  0  0  0  0
    3.2716   -3.8806   33.0720 C   0  0  0  0  0  0  0  0  0  0  0  0
    2.4960   -4.9834   32.7418 C   0  0  0  0  0  0  0  0  0  0  0  0
    1.1982   -4.7853   32.2770 C   0  0  0  0  0  0  0  0  0  0  0  0
    0.7256   -3.4836   32.1552 C   0  0  0  0  0  0  0  0  0  0  0  0
   -0.9034   -3.1610   31.6101 S   0  0  0  0  0  0  0  0  0  0  0  0
   -1.6490   -4.3948   31.6608 O   0  0  0  0  0  0  0  0  0  0  0  0
   -1.4287   -1.8829   32.2599 N   0  0  0  0  0  0  0  0  0  0  0  0
   -2.2488   -2.0434   33.4408 C   0  0  0  0  0  0  0  0  0  0  0  0
   -3.2391   -0.9927   33.3252 N   0  0  0  0  0  0  0  0  0  0  0  0
   -4.4990   -1.3311   33.9701 C   0  0  0  0  0  0  0  0  0  0  0  0
   -5.0642   -2.4672   33.3172 O   0  0  0  0  0  0  0  0  0  0  0  0
   -4.3242   -1.6579   35.4639 C   0  0  0  0  0  0  0  0  0  0  0  0
   -5.0770   -0.6934   36.3743 C   0  0  0  0  0  0  0  0  0  0  0  0
   -6.4970   -0.6251   36.0351 N   0  0  0  0  0  0  0  0  0  0  0  0
   -7.1914    0.3499   36.8839 C   0  0  0  0  0  0  0  0  0  0  0  0
   -8.5951   -0.1005   37.2037 C   0  0  0  0  0  0  0  0  0  0  0  0
   -9.3911    0.5302   38.2228 C   0  0  0  0  0  0  0  0  0  0  0  0
  -10.6262   -0.0558   38.3818 C   0  0  0  0  0  0  0  0  0  0  0  0
  -10.8528   -1.3654   37.3111 S   0  0  0  0  0  0  0  0  0  0  0  0
   -9.3033   -1.1418   36.6265 C   0  0  0  0  0  0  0  0  0  0  0  0
   -6.7395   -0.3776   34.6053 C   0  0  0  0  0  0  0  0  0  0  0  0
   -5.4705   -0.1592   33.7845 C   0  0  0  0  0  0  0  0  0  0  0  0
   -0.9610   -2.7459   29.9859 N   0  0  0  0  0  0  0  0  0  0  0  0
    0.2083   -2.5218   29.1344 C   0  0  0  0  0  0  0  0  0  0  0  0
    0.1778   -1.1686   28.4045 C   0  0  0  0  0  0  0  0  0  0  0  0
    0.2097   -0.0426   29.3932 C   0  0  0  0  0  0  0  0  0  0  0  0
   -0.9510    0.1938   30.0342 N   0  0  0  0  0  0  0  0  0  0  0  0
   -0.8745    0.9392   31.1464 C   0  0  0  0  0  0  0  0  0  0  0  0
    0.2685    1.5509   31.5686 C   0  0  0  0  0  0  0  0  0  0  0  0
    1.3657    1.2965   30.7930 C   0  0  0  0  0  0  0  0  0  0  0  0
    2.5690    1.8324   31.1179 O   0  0  0  0  0  0  0  0  0  0  0  0
    1.3959    0.4919   29.7271 N   0  0  0  0  0  0  0  0  0  0  0  0
    1.5581   -2.4399   32.5134 C   0  0  0  0  0  0  0  0  0  0  0  0
    2.8274   -2.6165   32.9614 N   0  0  0  0  0  0  0  0  0  0  0  0
    4.9330   -3.1168   33.7374 H   0  0  0  0  0  0  0  0  0  0  0  0
    4.6286   -4.6712   34.3045 H   0  0  0  0  0  0  0  0  0  0  0  0
    2.8886   -5.9892   32.8427 H   0  0  0  0  0  0  0  0  0  0  0  0
    0.5810   -5.6434   32.0189 H   0  0  0  0  0  0  0  0  0  0  0  0
   -1.6299   -1.9177   34.3343 H   0  0  0  0  0  0  0  0  0  0  0  0
   -2.7121   -3.0288   33.4723 H   0  0  0  0  0  0  0  0  0  0  0  0
   -3.3661   -0.9129   32.3222 H   0  0  0  0  0  0  0  0  0  0  0  0
   -5.2790   -2.2055   32.4076 H   0  0  0  0  0  0  0  0  0  0  0  0
   -3.2746   -1.6143   35.7765 H   0  0  0  0  0  0  0  0  0  0  0  0
   -4.6380   -2.6862   35.6540 H   0  0  0  0  0  0  0  0  0  0  0  0
   -4.9649   -1.0495   37.4063 H   0  0  0  0  0  0  0  0  0  0  0  0
   -4.6100    0.2998   36.3314 H   0  0  0  0  0  0  0  0  0  0  0  0
   -7.1941    1.3575   36.4491 H   0  0  0  0  0  0  0  0  0  0  0  0
   -6.6763    0.4381   37.8512 H   0  0  0  0  0  0  0  0  0  0  0  0
   -9.0608    1.3723   38.8201 H   0  0  0  0  0  0  0  0  0  0  0  0
  -11.4059    0.2223   39.0777 H   0  0  0  0  0  0  0  0  0  0  0  0
   -8.9796   -1.8008   35.8326 H   0  0  0  0  0  0  0  0  0  0  0  0
   -7.4151    0.4695   34.4429 H   0  0  0  0  0  0  0  0  0  0  0  0
   -7.2667   -1.2530   34.2063 H   0  0  0  0  0  0  0  0  0  0  0  0
   -5.7757   -0.0760   32.7403 H   0  0  0  0  0  0  0  0  0  0  0  0
   -5.0064    0.7955   34.0651 H   0  0  0  0  0  0  0  0  0  0  0  0
   -1.5087   -1.8860   30.0130 H   0  0  0  0  0  0  0  0  0  0  0  0
    1.1419   -2.5940   29.6993 H   0  0  0  0  0  0  0  0  0  0  0  0
    0.2363   -3.3238   28.3895 H   0  0  0  0  0  0  0  0  0  0  0  0
   -0.7334   -1.0755   27.8070 H   0  0  0  0  0  0  0  0  0  0  0  0
    1.0385   -1.0908   27.7323 H   0  0  0  0  0  0  0  0  0  0  0  0
   -1.7880    1.0043   31.7232 H   0  0  0  0  0  0  0  0  0  0  0  0
    0.3203    2.1610   32.4569 H   0  0  0  0  0  0  0  0  0  0  0  0
    3.1257    1.4506   30.4151 H   0  0  0  0  0  0  0  0  0  0  0  0
    1.2375   -1.4041   32.4478 H   0  0  0  0  0  0  0  0  0  0  0  0
  1  2  1  0
  2  3  2  0
  3  4  1  0
  4  5  2  0
  5  6  1  0
  6  7  2  0
  6  8  2  0
  8  9  1  0
  9 10  1  0
 10 11  1  0
 11 12  1  0
 11 13  1  0
 13 14  1  0
 14 15  1  0
 15 16  1  0
 16 17  1  0
 17 18  1  0
 18 19  2  0
 19 20  1  0
 20 21  1  0
 15 22  1  0
 22 23  1  0
  6 24  1  0
 24 25  1  0
 25 26  1  0
 26 27  1  0
 27 28  2  0
 28 29  1  0
 29 30  2  0
 30 31  1  0
 31 32  1  0
 31 33  2  0
  5 34  1  0
 34 35  2  0
 35  2  1  0
 23 11  1  0
 33 27  1  0
 21 17  2  0
  1 36  1  0
  1 37  1  0
  3 38  1  0
  4 39  1  0
  9 40  1  0
  9 41  1  0
 10 42  1  0
 12 43  1  0
 13 44  1  0
 13 45  1  0
 14 46  1  0
 14 47  1  0
 16 48  1  0
 16 49  1  0
 18 50  1  0
 19 51  1  0
 21 52  1  0
 22 53  1  0
 22 54  1  0
 23 55  1  0
 23 56  1  0
 24 57  1  0
 25 58  1  0
 25 59  1  0
 26 60  1  0
 26 61  1  0
 29 62  1  0
 30 63  1  0
 32 64  1  0
 34 65  1  0
M  END
>  <Energy>  (558) 
-270.97630493907081

>  <compound_id>  (558) 
3530

>  <target_id>  (558) 
1

>  <reference_id>  (558) 
121

>  <inspiration_ids>  (558) 
[121, 13]

>  <energy_score>  (558) 
-72.76605550107806

>  <distance_score>  (558) 
0.9267308870170233

>  <path>  (558) 
/opt/xchem-fragalysis-2/maxwin/BulkDock/SCRATCH/505734/C3530-P121/C3530-P121.minimised.mol

>  <scratch_subdir>  (558) 
/opt/xchem-fragalysis-2/maxwin/BulkDock/SCRATCH/505734/C3530-P121

>  <fragmenstein_runtime>  (558) 
13.81788158416748

>  <fragmenstein_outcome>  (558) 
acceptable

>  <fragmenstein_mode>  (558) 
expansion

>  <fragmenstein_error>  (558) 


$$$$
C3530-P13
     RDKit          3D

 65 68  0  0  0  0  0  0  0  0999 V2000
    3.9178   -4.7597   33.9527 N   0  0  0  0  0  0  0  0  0  0  0  0
    2.7007   -4.3340   33.4273 C   0  0  0  0  0  0  0  0  0  0  0  0
    1.7186   -5.2562   33.0916 C   0  0  0  0  0  0  0  0  0  0  0  0
    0.5223   -4.7970   32.5471 C   0  0  0  0  0  0  0  0  0  0  0  0
    0.3534   -3.4282   32.3562 C   0  0  0  0  0  0  0  0  0  0  0  0
   -1.1461   -2.7898   31.7046 S   0  0  0  0  0  0  0  0  0  0  0  0
   -2.1005   -3.8759   31.7082 O   0  0  0  0  0  0  0  0  0  0  0  0
   -1.4381   -1.4154   32.2980 N   0  0  0  0  0  0  0  0  0  0  0  0
   -2.2988   -1.3302   33.4662 C   0  0  0  0  0  0  0  0  0  0  0  0
   -3.6384   -1.7684   33.1432 N   0  0  0  0  0  0  0  0  0  0  0  0
   -4.6835   -1.4299   34.0884 C   0  0  0  0  0  0  0  0  0  0  0  0
   -5.7357   -2.3313   33.7441 O   0  0  0  0  0  0  0  0  0  0  0  0
   -4.3495   -1.6215   35.5759 C   0  0  0  0  0  0  0  0  0  0  0  0
   -4.9611   -0.5556   36.4897 C   0  0  0  0  0  0  0  0  0  0  0  0
   -6.3341   -0.2977   36.0941 N   0  0  0  0  0  0  0  0  0  0  0  0
   -7.0835    0.4734   37.0841 C   0  0  0  0  0  0  0  0  0  0  0  0
   -8.4852   -0.0576   37.2443 C   0  0  0  0  0  0  0  0  0  0  0  0
   -9.4027    0.4712   38.2171 C   0  0  0  0  0  0  0  0  0  0  0  0
  -10.6109   -0.1875   38.2301 C   0  0  0  0  0  0  0  0  0  0  0  0
  -10.6632   -1.4460   37.0774 S   0  0  0  0  0  0  0  0  0  0  0  0
   -9.0756   -1.1004   36.5491 C   0  0  0  0  0  0  0  0  0  0  0  0
   -6.4168    0.2983   34.7543 C   0  0  0  0  0  0  0  0  0  0  0  0
   -5.2158   -0.0233   33.8551 C   0  0  0  0  0  0  0  0  0  0  0  0
   -0.9658   -2.4516   30.0737 N   0  0  0  0  0  0  0  0  0  0  0  0
    0.2562   -1.8602   29.5442 C   0  0  0  0  0  0  0  0  0  0  0  0
    0.0708   -1.2883   28.1448 C   0  0  0  0  0  0  0  0  0  0  0  0
   -0.4618    0.1140   28.1158 C   0  0  0  0  0  0  0  0  0  0  0  0
    0.2439    1.0699   28.7557 N   0  0  0  0  0  0  0  0  0  0  0  0
   -0.2376    2.3259   28.6684 C   0  0  0  0  0  0  0  0  0  0  0  0
   -1.3746    2.6532   27.9754 C   0  0  0  0  0  0  0  0  0  0  0  0
   -1.9681    1.6105   27.3297 C   0  0  0  0  0  0  0  0  0  0  0  0
   -3.0243    1.8179   26.5085 O   0  0  0  0  0  0  0  0  0  0  0  0
   -1.5642    0.3412   27.3827 N   0  0  0  0  0  0  0  0  0  0  0  0
    1.3750   -2.5765   32.7275 C   0  0  0  0  0  0  0  0  0  0  0  0
    2.5509   -3.0098   33.2503 N   0  0  0  0  0  0  0  0  0  0  0  0
    4.4588   -3.9172   34.1415 H   0  0  0  0  0  0  0  0  0  0  0  0
    3.7831   -5.2999   34.7997 H   0  0  0  0  0  0  0  0  0  0  0  0
    1.8804   -6.3174   33.2403 H   0  0  0  0  0  0  0  0  0  0  0  0
   -0.2580   -5.5040   32.2768 H   0  0  0  0  0  0  0  0  0  0  0  0
   -2.3016   -0.2831   33.7882 H   0  0  0  0  0  0  0  0  0  0  0  0
   -1.8586   -1.9217   34.2772 H   0  0  0  0  0  0  0  0  0  0  0  0
   -3.5884   -2.7934   33.1594 H   0  0  0  0  0  0  0  0  0  0  0  0
   -5.7686   -2.3017   32.7721 H   0  0  0  0  0  0  0  0  0  0  0  0
   -3.2770   -1.6240   35.7848 H   0  0  0  0  0  0  0  0  0  0  0  0
   -4.7287   -2.5880   35.8874 H   0  0  0  0  0  0  0  0  0  0  0  0
   -4.9149   -0.9416   37.5160 H   0  0  0  0  0  0  0  0  0  0  0  0
   -4.3616    0.3639   36.4708 H   0  0  0  0  0  0  0  0  0  0  0  0
   -7.1040    1.5476   36.8621 H   0  0  0  0  0  0  0  0  0  0  0  0
   -6.6129    0.3835   38.0733 H   0  0  0  0  0  0  0  0  0  0  0  0
   -9.1753    1.2929   38.8861 H   0  0  0  0  0  0  0  0  0  0  0  0
  -11.4650    0.0083   38.8636 H   0  0  0  0  0  0  0  0  0  0  0  0
   -8.6373   -1.6861   35.7508 H   0  0  0  0  0  0  0  0  0  0  0  0
   -6.4764    1.3909   34.8181 H   0  0  0  0  0  0  0  0  0  0  0  0
   -7.3371   -0.0493   34.2714 H   0  0  0  0  0  0  0  0  0  0  0  0
   -5.5499    0.0716   32.8243 H   0  0  0  0  0  0  0  0  0  0  0  0
   -4.4271    0.7191   34.0283 H   0  0  0  0  0  0  0  0  0  0  0  0
   -1.7536   -1.8468   29.8572 H   0  0  0  0  0  0  0  0  0  0  0  0
    0.6398   -1.0882   30.2199 H   0  0  0  0  0  0  0  0  0  0  0  0
    1.0114   -2.6531   29.4947 H   0  0  0  0  0  0  0  0  0  0  0  0
   -0.5892   -1.9449   27.5743 H   0  0  0  0  0  0  0  0  0  0  0  0
    1.0439   -1.2748   27.6418 H   0  0  0  0  0  0  0  0  0  0  0  0
    0.3272    3.0867   29.1993 H   0  0  0  0  0  0  0  0  0  0  0  0
   -1.7591    3.6624   27.9173 H   0  0  0  0  0  0  0  0  0  0  0  0
   -3.1968    0.9080   26.2128 H   0  0  0  0  0  0  0  0  0  0  0  0
    1.2928   -1.4981   32.6162 H   0  0  0  0  0  0  0  0  0  0  0  0
  1  2  1  0
  2  3  2  0
  3  4  1  0
  4  5  2  0
  5  6  1  0
  6  7  2  0
  6  8  2  0
  8  9  1  0
  9 10  1  0
 10 11  1  0
 11 12  1  0
 11 13  1  0
 13 14  1  0
 14 15  1  0
 15 16  1  0
 16 17  1  0
 17 18  1  0
 18 19  2  0
 19 20  1  0
 20 21  1  0
 15 22  1  0
 22 23  1  0
  6 24  1  0
 24 25  1  0
 25 26  1  0
 26 27  1  0
 27 28  2  0
 28 29  1  0
 29 30  2  0
 30 31  1  0
 31 32  1  0
 31 33  2  0
  5 34  1  0
 34 35  2  0
 35  2  1  0
 23 11  1  0
 33 27  1  0
 21 17  2  0
  1 36  1  0
  1 37  1  0
  3 38  1  0
  4 39  1  0
  9 40  1  0
  9 41  1  0
 10 42  1  0
 12 43  1  0
 13 44  1  0
 13 45  1  0
 14 46  1  0
 14 47  1  0
 16 48  1  0
 16 49  1  0
 18 50  1  0
 19 51  1  0
 21 52  1  0
 22 53  1  0
 22 54  1  0
 23 55  1  0
 23 56  1  0
 24 57  1  0
 25 58  1  0
 25 59  1  0
 26 60  1  0
 26 61  1  0
 29 62  1  0
 30 63  1  0
 32 64  1  0
 34 65  1  0
M  END
>  <Energy>  (559) 
-269.44995894047975

>  <compound_id>  (559) 
3530

>  <target_id>  (559) 
1

>  <reference_id>  (559) 
13

>  <inspiration_ids>  (559) 
[121, 13]

>  <energy_score>  (559) 
-71.2397095024895

>  <distance_score>  (559) 
1.2000721459033283

>  <path>  (559) 
/opt/xchem-fragalysis-2/maxwin/BulkDock/SCRATCH/505734/C3530-P13/C3530-P13.minimised.mol

>  <scratch_subdir>  (559) 
/opt/xchem-fragalysis-2/maxwin/BulkDock/SCRATCH/505734/C3530-P13

>  <fragmenstein_runtime>  (559) 
15.216892719268799

>  <fragmenstein_outcome>  (559) 
too moved

>  <fragmenstein_mode>  (559) 
expansion

>  <fragmenstein_error>  (559) 


$$$$
C3530-P121
     RDKit          3D

 65 68  0  0  0  0  0  0  0  0999 V2000
   -2.3634    3.0625   25.6641 N   0  0  0  0  0  0  0  0  0  0  0  0
   -1.6795    2.3647   26.6401 C   0  0  0  0  0  0  0  0  0  0  0  0
   -0.6936    2.9878   27.3912 C   0  0  0  0  0  0  0  0  0  0  0  0
   -0.1489    2.3194   28.4894 C   0  0  0  0  0  0  0  0  0  0  0  0
   -0.6200    1.0508   28.8093 C   0  0  0  0  0  0  0  0  0  0  0  0
   -0.2492    0.2246   30.3265 S   0  0  0  0  0  0  0  0  0  0  0  0
    0.3957   -1.0280   30.0187 O   0  0  0  0  0  0  0  0  0  0  0  0
   -1.4645    0.4329   31.2323 N   0  0  0  0  0  0  0  0  0  0  0  0
   -1.6833   -0.4756   32.3471 C   0  0  0  0  0  0  0  0  0  0  0  0
   -3.0217   -0.1283   32.7725 N   0  0  0  0  0  0  0  0  0  0  0  0
   -3.6896   -1.0580   33.6778 C   0  0  0  0  0  0  0  0  0  0  0  0
   -3.5324   -2.3869   33.1932 O   0  0  0  0  0  0  0  0  0  0  0  0
   -3.1150   -0.9023   35.0939 C   0  0  0  0  0  0  0  0  0  0  0  0
   -4.0575   -1.4172   36.1928 C   0  0  0  0  0  0  0  0  0  0  0  0
   -5.4833   -1.0893   36.0226 N   0  0  0  0  0  0  0  0  0  0  0  0
   -6.1043   -0.6658   37.2851 C   0  0  0  0  0  0  0  0  0  0  0  0
   -7.6117   -0.7971   37.2614 C   0  0  0  0  0  0  0  0  0  0  0  0
   -8.4709   -0.1162   38.1933 C   0  0  0  0  0  0  0  0  0  0  0  0
   -9.8046   -0.4063   38.0094 C   0  0  0  0  0  0  0  0  0  0  0  0
  -10.0470   -1.5023   36.7235 S   0  0  0  0  0  0  0  0  0  0  0  0
   -8.3700   -1.5751   36.4012 C   0  0  0  0  0  0  0  0  0  0  0  0
   -5.7010   -0.1178   34.9478 C   0  0  0  0  0  0  0  0  0  0  0  0
   -5.2026   -0.7416   33.6531 C   0  0  0  0  0  0  0  0  0  0  0  0
    0.9095    1.0833   31.1947 N   0  0  0  0  0  0  0  0  0  0  0  0
    2.3048    1.1323   30.7778 C   0  0  0  0  0  0  0  0  0  0  0  0
    3.0858    2.2191   31.5242 C   0  0  0  0  0  0  0  0  0  0  0  0
    2.7037    3.5960   31.0491 C   0  0  0  0  0  0  0  0  0  0  0  0
    1.4858    4.0619   31.4061 N   0  0  0  0  0  0  0  0  0  0  0  0
    1.1406    5.2773   30.9291 C   0  0  0  0  0  0  0  0  0  0  0  0
    1.9457    6.0205   30.1062 C   0  0  0  0  0  0  0  0  0  0  0  0
    3.1440    5.4357   29.8056 C   0  0  0  0  0  0  0  0  0  0  0  0
    4.0289    6.0714   28.9965 O   0  0  0  0  0  0  0  0  0  0  0  0
    3.5614    4.2410   30.2395 N   0  0  0  0  0  0  0  0  0  0  0  0
   -1.5390    0.4681   27.9611 C   0  0  0  0  0  0  0  0  0  0  0  0
   -2.0738    1.1038   26.8832 N   0  0  0  0  0  0  0  0  0  0  0  0
   -1.8209    3.6292   25.0304 H   0  0  0  0  0  0  0  0  0  0  0  0
   -3.1276    2.5343   25.2504 H   0  0  0  0  0  0  0  0  0  0  0  0
   -0.4074    4.0129   27.1792 H   0  0  0  0  0  0  0  0  0  0  0  0
    0.5645    2.8418   29.1121 H   0  0  0  0  0  0  0  0  0  0  0  0
   -0.9533   -0.3036   33.1435 H   0  0  0  0  0  0  0  0  0  0  0  0
   -1.6122   -1.5128   32.0030 H   0  0  0  0  0  0  0  0  0  0  0  0
   -3.5063   -0.1383   31.8865 H   0  0  0  0  0  0  0  0  0  0  0  0
   -3.5696   -2.9962   33.9559 H   0  0  0  0  0  0  0  0  0  0  0  0
   -2.9158    0.1587   35.3009 H   0  0  0  0  0  0  0  0  0  0  0  0
   -2.1549   -1.4268   35.1797 H   0  0  0  0  0  0  0  0  0  0  0  0
   -3.9751   -2.5079   36.2398 H   0  0  0  0  0  0  0  0  0  0  0  0
   -3.6723   -1.0414   37.1499 H   0  0  0  0  0  0  0  0  0  0  0  0
   -5.8123    0.3603   37.5428 H   0  0  0  0  0  0  0  0  0  0  0  0
   -5.7601   -1.3168   38.1005 H   0  0  0  0  0  0  0  0  0  0  0  0
   -8.1189    0.5563   38.9674 H   0  0  0  0  0  0  0  0  0  0  0  0
  -10.6477   -0.0267   38.5705 H   0  0  0  0  0  0  0  0  0  0  0  0
   -8.0125   -2.1860   35.5826 H   0  0  0  0  0  0  0  0  0  0  0  0
   -5.2018    0.8385   35.1500 H   0  0  0  0  0  0  0  0  0  0  0  0
   -6.7660    0.1053   34.8200 H   0  0  0  0  0  0  0  0  0  0  0  0
   -5.4579   -0.0453   32.8495 H   0  0  0  0  0  0  0  0  0  0  0  0
   -5.7803   -1.6510   33.4339 H   0  0  0  0  0  0  0  0  0  0  0  0
    0.5336    2.0167   31.3437 H   0  0  0  0  0  0  0  0  0  0  0  0
    2.7638    0.1611   30.9944 H   0  0  0  0  0  0  0  0  0  0  0  0
    2.3849    1.2957   29.6971 H   0  0  0  0  0  0  0  0  0  0  0  0
    2.9207    2.1476   32.6060 H   0  0  0  0  0  0  0  0  0  0  0  0
    4.1591    2.0680   31.3573 H   0  0  0  0  0  0  0  0  0  0  0  0
    0.1640    5.6447   31.2322 H   0  0  0  0  0  0  0  0  0  0  0  0
    1.6565    6.9880   29.7236 H   0  0  0  0  0  0  0  0  0  0  0  0
    4.7584    5.4266   28.9854 H   0  0  0  0  0  0  0  0  0  0  0  0
   -1.9255   -0.5323   28.1399 H   0  0  0  0  0  0  0  0  0  0  0  0
  1  2  1  0
  2  3  2  0
  3  4  1  0
  4  5  2  0
  5  6  1  0
  6  7  2  0
  6  8  2  0
  8  9  1  0
  9 10  1  0
 10 11  1  0
 11 12  1  0
 11 13  1  0
 13 14  1  0
 14 15  1  0
 15 16  1  0
 16 17  1  0
 17 18  1  0
 18 19  2  0
 19 20  1  0
 20 21  1  0
 15 22  1  0
 22 23  1  0
  6 24  1  0
 24 25  1  0
 25 26  1  0
 26 27  1  0
 27 28  2  0
 28 29  1  0
 29 30  2  0
 30 31  1  0
 31 32  1  0
 31 33  2  0
  5 34  1  0
 34 35  2  0
 35  2  1  0
 23 11  1  0
 33 27  1  0
 21 17  2  0
  1 36  1  0
  1 37  1  0
  3 38  1  0
  4 39  1  0
  9 40  1  0
  9 41  1  0
 10 42  1  0
 12 43  1  0
 13 44  1  0
 13 45  1  0
 14 46  1  0
 14 47  1  0
 16 48  1  0
 16 49  1  0
 18 50  1  0
 19 51  1  0
 21 52  1  0
 22 53  1  0
 22 54  1  0
 23 55  1  0
 23 56  1  0
 24 57  1  0
 25 58  1  0
 25 59  1  0
 26 60  1  0
 26 61  1  0
 29 62  1  0
 30 63  1  0
 32 64  1  0
 34 65  1  0
M  END
>  <Energy>  (560) 
-277.34394032409529

>  <compound_id>  (560) 
3530

>  <target_id>  (560) 
1

>  <reference_id>  (560) 
121

>  <inspiration_ids>  (560) 
[121, 44]

>  <energy_score>  (560) 
-129.95376800211517

>  <distance_score>  (560) 
2.3383659597000523

>  <path>  (560) 
/opt/xchem-fragalysis-2/maxwin/BulkDock/SCRATCH/505734/C3530-P121/C3530-P121.minimised.mol

>  <scratch_subdir>  (560) 
/opt/xchem-fragalysis-2/maxwin/BulkDock/SCRATCH/505734/C3530-P121

>  <fragmenstein_runtime>  (560) 
20.804868936538696

>  <fragmenstein_outcome>  (560) 
too moved

>  <fragmenstein_mode>  (560) 
expansion

>  <fragmenstein_error>  (560) 


$$$$
C3530-P44
     RDKit          3D

 65 68  0  0  0  0  0  0  0  0999 V2000
    3.0837    1.2093   26.4531 N   0  0  0  0  0  0  0  0  0  0  0  0
    2.1353    0.9814   27.4516 C   0  0  0  0  0  0  0  0  0  0  0  0
    1.6899    2.0265   28.2277 C   0  0  0  0  0  0  0  0  0  0  0  0
    0.8105    1.7136   29.2401 C   0  0  0  0  0  0  0  0  0  0  0  0
    0.3606    0.3834   29.4148 C   0  0  0  0  0  0  0  0  0  0  0  0
   -0.9794    0.1518   30.5021 S   0  0  0  0  0  0  0  0  0  0  0  0
   -0.8480    1.2543   31.4279 O   0  0  0  0  0  0  0  0  0  0  0  0
   -1.4417   -1.2183   31.0425 N   0  0  0  0  0  0  0  0  0  0  0  0
   -2.1453   -1.0694   32.3725 C   0  0  0  0  0  0  0  0  0  0  0  0
   -3.2843   -1.9671   32.5422 N   0  0  0  0  0  0  0  0  0  0  0  0
   -4.2608   -1.6302   33.6042 C   0  0  0  0  0  0  0  0  0  0  0  0
   -5.2784   -2.6139   33.4320 O   0  0  0  0  0  0  0  0  0  0  0  0
   -3.7309   -1.6618   35.0573 C   0  0  0  0  0  0  0  0  0  0  0  0
   -4.4671   -0.7164   36.0346 C   0  0  0  0  0  0  0  0  0  0  0  0
   -5.9055   -0.6477   35.7797 N   0  0  0  0  0  0  0  0  0  0  0  0
   -6.6001    0.1479   36.8064 C   0  0  0  0  0  0  0  0  0  0  0  0
   -8.0490   -0.2398   36.9885 C   0  0  0  0  0  0  0  0  0  0  0  0
   -8.9163    0.4369   37.9197 C   0  0  0  0  0  0  0  0  0  0  0  0
  -10.1785   -0.1095   37.9795 C   0  0  0  0  0  0  0  0  0  0  0  0
  -10.3453   -1.4379   36.9203 S   0  0  0  0  0  0  0  0  0  0  0  0
   -8.7336   -1.2733   36.3722 C   0  0  0  0  0  0  0  0  0  0  0  0
   -6.1676   -0.1347   34.4247 C   0  0  0  0  0  0  0  0  0  0  0  0
   -4.9861   -0.3004   33.4488 C   0  0  0  0  0  0  0  0  0  0  0  0
   -2.2636    0.4721   29.4504 N   0  0  0  0  0  0  0  0  0  0  0  0
   -2.1832    1.4365   28.3312 C   0  0  0  0  0  0  0  0  0  0  0  0
   -1.8401    0.9277   26.9369 C   0  0  0  0  0  0  0  0  0  0  0  0
   -1.7325    2.1351   26.0415 C   0  0  0  0  0  0  0  0  0  0  0  0
   -2.8693    2.6575   25.5573 N   0  0  0  0  0  0  0  0  0  0  0  0
   -2.7557    3.7679   24.8015 C   0  0  0  0  0  0  0  0  0  0  0  0
   -1.5554    4.3628   24.5098 C   0  0  0  0  0  0  0  0  0  0  0  0
   -0.4707    3.7378   25.0548 C   0  0  0  0  0  0  0  0  0  0  0  0
    0.7866    4.1882   24.8177 O   0  0  0  0  0  0  0  0  0  0  0  0
   -0.5084    2.6453   25.8206 N   0  0  0  0  0  0  0  0  0  0  0  0
    0.8068   -0.5830   28.5660 C   0  0  0  0  0  0  0  0  0  0  0  0
    1.7093   -0.2946   27.5995 N   0  0  0  0  0  0  0  0  0  0  0  0
    3.9144    1.6470   26.8362 H   0  0  0  0  0  0  0  0  0  0  0  0
    3.2971    0.2961   26.0569 H   0  0  0  0  0  0  0  0  0  0  0  0
    2.0239    3.0434   28.0650 H   0  0  0  0  0  0  0  0  0  0  0  0
    0.4379    2.5229   29.8665 H   0  0  0  0  0  0  0  0  0  0  0  0
   -2.5157   -0.0493   32.4953 H   0  0  0  0  0  0  0  0  0  0  0  0
   -1.4052   -1.2395   33.1632 H   0  0  0  0  0  0  0  0  0  0  0  0
   -2.8902   -2.8705   32.8017 H   0  0  0  0  0  0  0  0  0  0  0  0
   -5.2761   -2.7699   32.4722 H   0  0  0  0  0  0  0  0  0  0  0  0
   -2.6706   -1.3869   35.0906 H   0  0  0  0  0  0  0  0  0  0  0  0
   -3.8120   -2.6580   35.4770 H   0  0  0  0  0  0  0  0  0  0  0  0
   -4.2780   -1.0881   37.0500 H   0  0  0  0  0  0  0  0  0  0  0  0
   -4.0191    0.2856   35.9858 H   0  0  0  0  0  0  0  0  0  0  0  0
   -6.5107    1.2259   36.6201 H   0  0  0  0  0  0  0  0  0  0  0  0
   -6.1285   -0.0322   37.7829 H   0  0  0  0  0  0  0  0  0  0  0  0
   -8.6132    1.2800   38.5296 H   0  0  0  0  0  0  0  0  0  0  0  0
  -11.0087    0.2057   38.5966 H   0  0  0  0  0  0  0  0  0  0  0  0
   -8.3528   -1.9541   35.6218 H   0  0  0  0  0  0  0  0  0  0  0  0
   -6.4013    0.9343   34.4551 H   0  0  0  0  0  0  0  0  0  0  0  0
   -7.0488   -0.6414   34.0153 H   0  0  0  0  0  0  0  0  0  0  0  0
   -4.2852    0.5215   33.6236 H   0  0  0  0  0  0  0  0  0  0  0  0
   -5.3884   -0.2280   32.4462 H   0  0  0  0  0  0  0  0  0  0  0  0
   -2.5235   -0.4434   29.0919 H   0  0  0  0  0  0  0  0  0  0  0  0
   -1.5511    2.2889   28.5929 H   0  0  0  0  0  0  0  0  0  0  0  0
   -3.1624    1.8878   28.2169 H   0  0  0  0  0  0  0  0  0  0  0  0
   -0.9063    0.3731   26.9026 H   0  0  0  0  0  0  0  0  0  0  0  0
   -2.6168    0.2585   26.5596 H   0  0  0  0  0  0  0  0  0  0  0  0
   -3.6922    4.1690   24.4258 H   0  0  0  0  0  0  0  0  0  0  0  0
   -1.4748    5.2492   23.9008 H   0  0  0  0  0  0  0  0  0  0  0  0
    1.3007    3.5169   25.3054 H   0  0  0  0  0  0  0  0  0  0  0  0
    0.4463   -1.6060   28.5933 H   0  0  0  0  0  0  0  0  0  0  0  0
  1  2  1  0
  2  3  2  0
  3  4  1  0
  4  5  2  0
  5  6  1  0
  6  7  2  0
  6  8  2  0
  8  9  1  0
  9 10  1  0
 10 11  1  0
 11 12  1  0
 11 13  1  0
 13 14  1  0
 14 15  1  0
 15 16  1  0
 16 17  1  0
 17 18  1  0
 18 19  2  0
 19 20  1  0
 20 21  1  0
 15 22  1  0
 22 23  1  0
  6 24  1  0
 24 25  1  0
 25 26  1  0
 26 27  1  0
 27 28  2  0
 28 29  1  0
 29 30  2  0
 30 31  1  0
 31 32  1  0
 31 33  2  0
  5 34  1  0
 34 35  2  0
 35  2  1  0
 23 11  1  0
 33 27  1  0
 21 17  2  0
  1 36  1  0
  1 37  1  0
  3 38  1  0
  4 39  1  0
  9 40  1  0
  9 41  1  0
 10 42  1  0
 12 43  1  0
 13 44  1  0
 13 45  1  0
 14 46  1  0
 14 47  1  0
 16 48  1  0
 16 49  1  0
 18 50  1  0
 19 51  1  0
 21 52  1  0
 22 53  1  0
 22 54  1  0
 23 55  1  0
 23 56  1  0
 24 57  1  0
 25 58  1  0
 25 59  1  0
 26 60  1  0
 26 61  1  0
 29 62  1  0
 30 63  1  0
 32 64  1  0
 34 65  1  0
M  END
>  <Energy>  (561) 
-248.81314729278282

>  <compound_id>  (561) 
3530

>  <target_id>  (561) 
1

>  <reference_id>  (561) 
44

>  <inspiration_ids>  (561) 
[121, 44]

>  <energy_score>  (561) 
-48.39903196127758

>  <distance_score>  (561) 
2.6453434282775454

>  <path>  (561) 
/opt/xchem-fragalysis-2/maxwin/BulkDock/SCRATCH/505734/C3530-P44/C3530-P44.minimised.mol

>  <scratch_subdir>  (561) 
/opt/xchem-fragalysis-2/maxwin/BulkDock/SCRATCH/505734/C3530-P44

>  <fragmenstein_runtime>  (561) 
7.445352792739868

>  <fragmenstein_outcome>  (561) 
too moved

>  <fragmenstein_mode>  (561) 
expansion

>  <fragmenstein_error>  (561) 


$$$$
C3531-P121
     RDKit          3D

 70 73  0  0  0  0  0  0  0  0999 V2000
   -2.1092   -2.4601   31.4503 C   0  0  0  0  0  0  0  0  0  0  0  0
   -1.4248   -1.1609   31.1885 C   0  0  0  0  0  0  0  0  0  0  0  0
   -0.9180   -0.8771   29.9449 C   0  0  0  0  0  0  0  0  0  0  0  0
   -0.2460    0.3112   29.8608 C   0  0  0  0  0  0  0  0  0  0  0  0
    0.2945    0.7223   28.6867 O   0  0  0  0  0  0  0  0  0  0  0  0
   -0.0300    1.1453   30.8867 N   0  0  0  0  0  0  0  0  0  0  0  0
   -0.5343    0.7685   32.0663 C   0  0  0  0  0  0  0  0  0  0  0  0
   -0.1547    1.5894   33.2675 C   0  0  0  0  0  0  0  0  0  0  0  0
   -0.7953    1.1660   34.5958 C   0  0  0  0  0  0  0  0  0  0  0  0
   -0.1653    0.0139   35.2293 N   0  0  0  0  0  0  0  0  0  0  0  0
   -0.8988   -1.4821   35.3573 S   0  0  0  0  0  0  0  0  0  0  0  0
   -0.4298   -2.2399   34.2264 O   0  0  0  0  0  0  0  0  0  0  0  0
   -2.3592   -1.2715   35.7481 N   0  0  0  0  0  0  0  0  0  0  0  0
   -3.1619   -2.3961   35.2953 C   0  0  0  0  0  0  0  0  0  0  0  0
   -4.5608   -2.1304   35.5291 N   0  0  0  0  0  0  0  0  0  0  0  0
   -5.2421   -1.5423   34.3798 C   0  0  0  0  0  0  0  0  0  0  0  0
   -5.0424   -2.3542   33.2255 O   0  0  0  0  0  0  0  0  0  0  0  0
   -4.8104   -0.0965   34.1311 C   0  0  0  0  0  0  0  0  0  0  0  0
   -5.2527    0.8207   35.2891 C   0  0  0  0  0  0  0  0  0  0  0  0
   -6.6686    0.6631   35.6844 N   0  0  0  0  0  0  0  0  0  0  0  0
   -6.8156    0.2717   37.0917 C   0  0  0  0  0  0  0  0  0  0  0  0
   -8.2637    0.1492   37.5121 C   0  0  0  0  0  0  0  0  0  0  0  0
   -9.0377    1.1986   38.1075 C   0  0  0  0  0  0  0  0  0  0  0  0
  -10.3236    0.8082   38.4146 C   0  0  0  0  0  0  0  0  0  0  0  0
  -10.6280   -0.8128   37.9732 S   0  0  0  0  0  0  0  0  0  0  0  0
   -9.0303   -1.0009   37.4067 C   0  0  0  0  0  0  0  0  0  0  0  0
   -7.3703   -0.1978   34.7449 C   0  0  0  0  0  0  0  0  0  0  0  0
   -6.7580   -1.5840   34.6249 C   0  0  0  0  0  0  0  0  0  0  0  0
   -0.1669   -2.1867   36.7272 N   0  0  0  0  0  0  0  0  0  0  0  0
    1.1744   -2.7771   36.5413 C   0  0  0  0  0  0  0  0  0  0  0  0
    1.7168   -3.4835   37.7877 C   0  0  0  0  0  0  0  0  0  0  0  0
    1.7251   -2.6002   38.9109 O   0  0  0  0  0  0  0  0  0  0  0  0
    0.3905   -2.1621   39.1790 C   0  0  0  0  0  0  0  0  0  0  0  0
   -0.1788   -1.4006   37.9784 C   0  0  0  0  0  0  0  0  0  0  0  0
   -1.2862   -0.3258   32.2369 N   0  0  0  0  0  0  0  0  0  0  0  0
   -2.3293   -2.9801   30.5150 H   0  0  0  0  0  0  0  0  0  0  0  0
   -1.4750   -3.1176   32.0493 H   0  0  0  0  0  0  0  0  0  0  0  0
   -3.0481   -2.2866   31.9681 H   0  0  0  0  0  0  0  0  0  0  0  0
   -1.0384   -1.5453   29.1041 H   0  0  0  0  0  0  0  0  0  0  0  0
    0.2537   -0.0111   28.0536 H   0  0  0  0  0  0  0  0  0  0  0  0
   -0.4334    2.6296   33.0698 H   0  0  0  0  0  0  0  0  0  0  0  0
    0.9388    1.5831   33.3611 H   0  0  0  0  0  0  0  0  0  0  0  0
   -1.8761    1.0482   34.4870 H   0  0  0  0  0  0  0  0  0  0  0  0
   -0.6607    2.0009   35.2944 H   0  0  0  0  0  0  0  0  0  0  0  0
    0.7008   -0.1982   34.7482 H   0  0  0  0  0  0  0  0  0  0  0  0
   -2.9563   -2.6679   34.2579 H   0  0  0  0  0  0  0  0  0  0  0  0
   -2.8795   -3.2386   35.9265 H   0  0  0  0  0  0  0  0  0  0  0  0
   -4.5293   -1.4568   36.2878 H   0  0  0  0  0  0  0  0  0  0  0  0
   -5.5259   -1.9296   32.4967 H   0  0  0  0  0  0  0  0  0  0  0  0
   -5.2443    0.2619   33.1885 H   0  0  0  0  0  0  0  0  0  0  0  0
   -3.7363   -0.0135   33.9532 H   0  0  0  0  0  0  0  0  0  0  0  0
   -4.5784    0.6984   36.1453 H   0  0  0  0  0  0  0  0  0  0  0  0
   -5.1175    1.8592   34.9623 H   0  0  0  0  0  0  0  0  0  0  0  0
   -6.3069   -0.6745   37.3091 H   0  0  0  0  0  0  0  0  0  0  0  0
   -6.3428    1.0325   37.7265 H   0  0  0  0  0  0  0  0  0  0  0  0
   -8.6618    2.1968   38.2998 H   0  0  0  0  0  0  0  0  0  0  0  0
  -11.1032    1.4051   38.8679 H   0  0  0  0  0  0  0  0  0  0  0  0
   -8.7340   -1.9478   36.9880 H   0  0  0  0  0  0  0  0  0  0  0  0
   -7.3798    0.2657   33.7554 H   0  0  0  0  0  0  0  0  0  0  0  0
   -8.4285   -0.2740   34.9979 H   0  0  0  0  0  0  0  0  0  0  0  0
   -6.9918   -2.1735   35.5185 H   0  0  0  0  0  0  0  0  0  0  0  0
   -7.2746   -2.1027   33.8083 H   0  0  0  0  0  0  0  0  0  0  0  0
    1.1544   -3.5089   35.7262 H   0  0  0  0  0  0  0  0  0  0  0  0
    1.8741   -1.9812   36.2559 H   0  0  0  0  0  0  0  0  0  0  0  0
    2.7490   -3.8028   37.6106 H   0  0  0  0  0  0  0  0  0  0  0  0
    1.1344   -4.3789   38.0280 H   0  0  0  0  0  0  0  0  0  0  0  0
    0.4282   -1.5021   40.0517 H   0  0  0  0  0  0  0  0  0  0  0  0
   -0.2351   -3.0213   39.4420 H   0  0  0  0  0  0  0  0  0  0  0  0
    0.4154   -0.4891   37.8375 H   0  0  0  0  0  0  0  0  0  0  0  0
   -1.2017   -1.0943   38.2229 H   0  0  0  0  0  0  0  0  0  0  0  0
  1  2  1  0
  2  3  2  0
  3  4  1  0
  4  5  1  0
  4  6  2  0
  6  7  1  0
  7  8  1  0
  8  9  1  0
  9 10  1  0
 10 11  1  0
 11 12  2  0
 11 13  2  0
 13 14  1  0
 14 15  1  0
 15 16  1  0
 16 17  1  0
 16 18  1  0
 18 19  1  0
 19 20  1  0
 20 21  1  0
 21 22  1  0
 22 23  1  0
 23 24  2  0
 24 25  1  0
 25 26  1  0
 20 27  1  0
 27 28  1  0
 11 29  1  0
 29 30  1  0
 30 31  1  0
 31 32  1  0
 32 33  1  0
 33 34  1  0
  7 35  2  0
 35  2  1  0
 28 16  1  0
 34 29  1  0
 26 22  2  0
  1 36  1  0
  1 37  1  0
  1 38  1  0
  3 39  1  0
  5 40  1  0
  8 41  1  0
  8 42  1  0
  9 43  1  0
  9 44  1  0
 10 45  1  0
 14 46  1  0
 14 47  1  0
 15 48  1  0
 17 49  1  0
 18 50  1  0
 18 51  1  0
 19 52  1  0
 19 53  1  0
 21 54  1  0
 21 55  1  0
 23 56  1  0
 24 57  1  0
 26 58  1  0
 27 59  1  0
 27 60  1  0
 28 61  1  0
 28 62  1  0
 30 63  1  0
 30 64  1  0
 31 65  1  0
 31 66  1  0
 33 67  1  0
 33 68  1  0
 34 69  1  0
 34 70  1  0
M  END
>  <Energy>  (562) 
-295.9998401420919

>  <compound_id>  (562) 
3531

>  <target_id>  (562) 
1

>  <reference_id>  (562) 
121

>  <inspiration_ids>  (562) 
[121, 59]

>  <energy_score>  (562) 
-119.20391347431968

>  <distance_score>  (562) 
1.6649868910638157

>  <path>  (562) 
/opt/xchem-fragalysis-2/maxwin/BulkDock/SCRATCH/505734/C3531-P121/C3531-P121.minimised.mol

>  <scratch_subdir>  (562) 
/opt/xchem-fragalysis-2/maxwin/BulkDock/SCRATCH/505734/C3531-P121

>  <fragmenstein_runtime>  (562) 
5.241042613983154

>  <fragmenstein_outcome>  (562) 
too moved

>  <fragmenstein_mode>  (562) 
expansion

>  <fragmenstein_error>  (562) 


$$$$
C3531-P59
     RDKit          3D

 70 73  0  0  0  0  0  0  0  0999 V2000
   -2.2095   -2.4772   30.7848 C   0  0  0  0  0  0  0  0  0  0  0  0
   -1.1627   -1.4358   30.6464 C   0  0  0  0  0  0  0  0  0  0  0  0
   -1.1951   -0.5307   29.6228 C   0  0  0  0  0  0  0  0  0  0  0  0
   -0.1972    0.3983   29.6740 C   0  0  0  0  0  0  0  0  0  0  0  0
   -0.1690    1.3967   28.7670 O   0  0  0  0  0  0  0  0  0  0  0  0
    0.7719    0.4795   30.5942 N   0  0  0  0  0  0  0  0  0  0  0  0
    0.7321   -0.4742   31.5319 C   0  0  0  0  0  0  0  0  0  0  0  0
    1.7417   -0.4399   32.6385 C   0  0  0  0  0  0  0  0  0  0  0  0
    1.2394    0.4208   33.7970 C   0  0  0  0  0  0  0  0  0  0  0  0
    0.8682   -0.3238   34.9971 N   0  0  0  0  0  0  0  0  0  0  0  0
   -0.5347   -1.2335   35.1251 S   0  0  0  0  0  0  0  0  0  0  0  0
   -0.3413   -2.4555   34.3898 O   0  0  0  0  0  0  0  0  0  0  0  0
   -1.6716   -0.2318   34.9480 N   0  0  0  0  0  0  0  0  0  0  0  0
   -2.3815   -0.4508   33.6999 C   0  0  0  0  0  0  0  0  0  0  0  0
   -3.6805    0.1690   33.8056 N   0  0  0  0  0  0  0  0  0  0  0  0
   -4.7480   -0.7828   34.1043 C   0  0  0  0  0  0  0  0  0  0  0  0
   -4.8230   -1.7508   33.0684 O   0  0  0  0  0  0  0  0  0  0  0  0
   -4.6592   -1.5276   35.4354 C   0  0  0  0  0  0  0  0  0  0  0  0
   -5.3925   -0.7685   36.5256 C   0  0  0  0  0  0  0  0  0  0  0  0
   -6.8328   -0.7077   36.2465 N   0  0  0  0  0  0  0  0  0  0  0  0
   -7.4686    0.3512   37.0350 C   0  0  0  0  0  0  0  0  0  0  0  0
   -8.8563   -0.0636   37.4512 C   0  0  0  0  0  0  0  0  0  0  0  0
   -9.5469    0.5472   38.5529 C   0  0  0  0  0  0  0  0  0  0  0  0
  -10.7931    0.0059   38.7718 C   0  0  0  0  0  0  0  0  0  0  0  0
  -11.1555   -1.2373   37.6602 S   0  0  0  0  0  0  0  0  0  0  0  0
   -9.6511   -1.0432   36.8784 C   0  0  0  0  0  0  0  0  0  0  0  0
   -7.1531   -0.5763   34.8168 C   0  0  0  0  0  0  0  0  0  0  0  0
   -6.0283    0.0479   34.0209 C   0  0  0  0  0  0  0  0  0  0  0  0
   -0.5620   -1.6633   36.7531 N   0  0  0  0  0  0  0  0  0  0  0  0
   -1.1550   -2.9546   37.1281 C   0  0  0  0  0  0  0  0  0  0  0  0
   -1.6488   -3.0118   38.5777 C   0  0  0  0  0  0  0  0  0  0  0  0
   -2.5918   -1.9687   38.8414 O   0  0  0  0  0  0  0  0  0  0  0  0
   -2.1334   -0.6793   38.4193 C   0  0  0  0  0  0  0  0  0  0  0  0
   -0.7276   -0.6684   37.8133 C   0  0  0  0  0  0  0  0  0  0  0  0
   -0.2227   -1.4093   31.6066 N   0  0  0  0  0  0  0  0  0  0  0  0
   -2.3250   -2.9738   29.8209 H   0  0  0  0  0  0  0  0  0  0  0  0
   -1.9274   -3.2291   31.5277 H   0  0  0  0  0  0  0  0  0  0  0  0
   -3.1544   -2.0287   31.0816 H   0  0  0  0  0  0  0  0  0  0  0  0
   -1.9451   -0.5274   28.8445 H   0  0  0  0  0  0  0  0  0  0  0  0
    0.6080    1.9032   29.0602 H   0  0  0  0  0  0  0  0  0  0  0  0
    2.6725   -0.0141   32.2435 H   0  0  0  0  0  0  0  0  0  0  0  0
    1.9844   -1.4597   32.9597 H   0  0  0  0  0  0  0  0  0  0  0  0
    0.4338    1.1026   33.4995 H   0  0  0  0  0  0  0  0  0  0  0  0
    2.0751    1.0664   34.0963 H   0  0  0  0  0  0  0  0  0  0  0  0
    0.7753    0.3501   35.7443 H   0  0  0  0  0  0  0  0  0  0  0  0
   -1.8491    0.0809   32.9091 H   0  0  0  0  0  0  0  0  0  0  0  0
   -2.4540   -1.5054   33.4214 H   0  0  0  0  0  0  0  0  0  0  0  0
   -3.5560    0.7654   34.6254 H   0  0  0  0  0  0  0  0  0  0  0  0
   -4.7031   -1.2293   32.2636 H   0  0  0  0  0  0  0  0  0  0  0  0
   -5.0887   -2.5260   35.3201 H   0  0  0  0  0  0  0  0  0  0  0  0
   -3.6297   -1.7130   35.7409 H   0  0  0  0  0  0  0  0  0  0  0  0
   -5.2430   -1.2763   37.4853 H   0  0  0  0  0  0  0  0  0  0  0  0
   -4.9610    0.2371   36.6186 H   0  0  0  0  0  0  0  0  0  0  0  0
   -6.9048    0.5197   37.9635 H   0  0  0  0  0  0  0  0  0  0  0  0
   -7.4918    1.3122   36.5057 H   0  0  0  0  0  0  0  0  0  0  0  0
   -9.1400    1.3466   39.1610 H   0  0  0  0  0  0  0  0  0  0  0  0
  -11.5100    0.2820   39.5327 H   0  0  0  0  0  0  0  0  0  0  0  0
   -9.4221   -1.6675   36.0269 H   0  0  0  0  0  0  0  0  0  0  0  0
   -8.0776   -0.0101   34.6489 H   0  0  0  0  0  0  0  0  0  0  0  0
   -7.3584   -1.5768   34.4264 H   0  0  0  0  0  0  0  0  0  0  0  0
   -6.3574    0.1066   32.9851 H   0  0  0  0  0  0  0  0  0  0  0  0
   -5.8763    1.0730   34.3864 H   0  0  0  0  0  0  0  0  0  0  0  0
   -0.4255   -3.7537   36.9577 H   0  0  0  0  0  0  0  0  0  0  0  0
   -2.0138   -3.1505   36.4785 H   0  0  0  0  0  0  0  0  0  0  0  0
   -0.8207   -2.9386   39.2925 H   0  0  0  0  0  0  0  0  0  0  0  0
   -2.1480   -3.9660   38.7645 H   0  0  0  0  0  0  0  0  0  0  0  0
   -2.1651   -0.0192   39.2926 H   0  0  0  0  0  0  0  0  0  0  0  0
   -2.8581   -0.2893   37.7008 H   0  0  0  0  0  0  0  0  0  0  0  0
    0.0069   -0.8861   38.5992 H   0  0  0  0  0  0  0  0  0  0  0  0
   -0.4920    0.3449   37.4706 H   0  0  0  0  0  0  0  0  0  0  0  0
  1  2  1  0
  2  3  2  0
  3  4  1  0
  4  5  1  0
  4  6  2  0
  6  7  1  0
  7  8  1  0
  8  9  1  0
  9 10  1  0
 10 11  1  0
 11 12  2  0
 11 13  2  0
 13 14  1  0
 14 15  1  0
 15 16  1  0
 16 17  1  0
 16 18  1  0
 18 19  1  0
 19 20  1  0
 20 21  1  0
 21 22  1  0
 22 23  1  0
 23 24  2  0
 24 25  1  0
 25 26  1  0
 20 27  1  0
 27 28  1  0
 11 29  1  0
 29 30  1  0
 30 31  1  0
 31 32  1  0
 32 33  1  0
 33 34  1  0
  7 35  2  0
 35  2  1  0
 28 16  1  0
 34 29  1  0
 26 22  2  0
  1 36  1  0
  1 37  1  0
  1 38  1  0
  3 39  1  0
  5 40  1  0
  8 41  1  0
  8 42  1  0
  9 43  1  0
  9 44  1  0
 10 45  1  0
 14 46  1  0
 14 47  1  0
 15 48  1  0
 17 49  1  0
 18 50  1  0
 18 51  1  0
 19 52  1  0
 19 53  1  0
 21 54  1  0
 21 55  1  0
 23 56  1  0
 24 57  1  0
 26 58  1  0
 27 59  1  0
 27 60  1  0
 28 61  1  0
 28 62  1  0
 30 63  1  0
 30 64  1  0
 31 65  1  0
 31 66  1  0
 33 67  1  0
 33 68  1  0
 34 69  1  0
 34 70  1  0
M  END
>  <Energy>  (563) 
-310.18866037542807

>  <compound_id>  (563) 
3531

>  <target_id>  (563) 
1

>  <reference_id>  (563) 
59

>  <inspiration_ids>  (563) 
[121, 59]

>  <energy_score>  (563) 
-133.39273370765517

>  <distance_score>  (563) 
1.4991822597780382

>  <path>  (563) 
/opt/xchem-fragalysis-2/maxwin/BulkDock/SCRATCH/505734/C3531-P59/C3531-P59.minimised.mol

>  <scratch_subdir>  (563) 
/opt/xchem-fragalysis-2/maxwin/BulkDock/SCRATCH/505734/C3531-P59

>  <fragmenstein_runtime>  (563) 
5.6827311515808105

>  <fragmenstein_outcome>  (563) 
too moved

>  <fragmenstein_mode>  (563) 
expansion

>  <fragmenstein_error>  (563) 


$$$$
C3542-P121
     RDKit          3D

 34 35  0  0  0  0  0  0  0  0999 V2000
   -7.3966   -6.8322   33.6812 C   0  0  0  0  0  0  0  0  0  0  0  0
   -6.6305   -5.7083   34.8484 C   0  0  0  0  0  0  0  0  0  0  0  0
   -5.7555   -4.0133   34.4537 C   0  0  0  0  0  0  0  0  0  0  0  0
   -4.9396   -2.9223   35.1932 C   0  0  0  0  0  0  0  0  0  0  0  0
   -4.1831   -2.9085   36.3161 O   0  0  0  0  0  0  0  0  0  0  0  0
   -2.8817   -2.3101   36.1766 C   0  0  0  0  0  0  0  0  0  0  0  0
   -1.9255   -3.3941   36.0555 N   0  0  0  0  0  0  0  0  0  0  0  0
   -0.5469   -3.2943   36.1189 C   0  0  0  0  0  0  0  0  0  0  0  0
    0.1105   -2.1724   36.6226 C   0  0  0  0  0  0  0  0  0  0  0  0
    1.5018   -2.1615   36.7743 C   0  0  0  0  0  0  0  0  0  0  0  0
    2.2610   -3.2844   36.4458 C   0  0  0  0  0  0  0  0  0  0  0  0
    1.6291   -4.4324   35.9815 C   0  0  0  0  0  0  0  0  0  0  0  0
    0.2449   -4.4328   35.8358 C   0  0  0  0  0  0  0  0  0  0  0  0
   -0.3299   -5.6280   35.4624 O   0  0  0  0  0  0  0  0  0  0  0  0
   -5.1958   -1.6795   34.7854 N   0  0  0  0  0  0  0  0  0  0  0  0
   -5.8788   -1.8914   33.6807 N   0  0  0  0  0  0  0  0  0  0  0  0
   -5.7856   -3.1996   33.2821 C   0  0  0  0  0  0  0  0  0  0  0  0
   -5.6429   -3.3390   31.9544 N   0  0  0  0  0  0  0  0  0  0  0  0
   -8.4235   -7.0854   33.9071 H   0  0  0  0  0  0  0  0  0  0  0  0
   -7.2658   -6.7721   32.6039 H   0  0  0  0  0  0  0  0  0  0  0  0
   -6.8217   -7.6855   33.4074 H   0  0  0  0  0  0  0  0  0  0  0  0
   -6.7855   -6.3037   35.7153 H   0  0  0  0  0  0  0  0  0  0  0  0
   -7.4304   -5.2496   35.5112 H   0  0  0  0  0  0  0  0  0  0  0  0
   -2.7996   -1.6252   35.3241 H   0  0  0  0  0  0  0  0  0  0  0  0
   -2.7062   -1.7427   37.0960 H   0  0  0  0  0  0  0  0  0  0  0  0
   -2.2542   -3.9686   35.2769 H   0  0  0  0  0  0  0  0  0  0  0  0
   -0.4412   -1.2851   36.9159 H   0  0  0  0  0  0  0  0  0  0  0  0
    1.9939   -1.2741   37.1647 H   0  0  0  0  0  0  0  0  0  0  0  0
    3.3396   -3.2718   36.5746 H   0  0  0  0  0  0  0  0  0  0  0  0
    2.2021   -5.3253   35.7515 H   0  0  0  0  0  0  0  0  0  0  0  0
   -1.2633   -5.4370   35.2544 H   0  0  0  0  0  0  0  0  0  0  0  0
   -6.1253   -1.0904   33.1113 H   0  0  0  0  0  0  0  0  0  0  0  0
   -5.4044   -4.2445   31.5828 H   0  0  0  0  0  0  0  0  0  0  0  0
   -6.2966   -2.8558   31.3400 H   0  0  0  0  0  0  0  0  0  0  0  0
  1  2  1  0
  2  3  1  0
  3  4  1  0
  4  5  1  0
  5  6  1  0
  6  7  1  0
  7  8  1  0
  8  9  2  0
  9 10  1  0
 10 11  2  0
 11 12  1  0
 12 13  2  0
 13 14  1  0
  4 15  2  0
 15 16  1  0
 16 17  1  0
 17 18  1  0
 17  3  2  0
 13  8  1  0
  1 19  1  0
  1 20  1  0
  1 21  1  0
  2 22  1  0
  2 23  1  0
  6 24  1  0
  6 25  1  0
  7 26  1  0
  9 27  1  0
 10 28  1  0
 11 29  1  0
 12 30  1  0
 14 31  1  0
 16 32  1  0
 18 33  1  0
 18 34  1  0
M  END
>  <Energy>  (564) 
193.25368447886174

>  <compound_id>  (564) 
3542

>  <target_id>  (564) 
1

>  <reference_id>  (564) 
121

>  <inspiration_ids>  (564) 
[121, 168]

>  <energy_score>  (564) 
148.29734651568077

>  <distance_score>  (564) 
2.9302775238622183

>  <path>  (564) 
/opt/xchem-fragalysis-2/maxwin/BulkDock/SCRATCH/505734/C3542-P121/C3542-P121.minimised.mol

>  <scratch_subdir>  (564) 
/opt/xchem-fragalysis-2/maxwin/BulkDock/SCRATCH/505734/C3542-P121

>  <fragmenstein_runtime>  (564) 
11.305171966552734

>  <fragmenstein_outcome>  (564) 
too moved

>  <fragmenstein_mode>  (564) 
expansion

>  <fragmenstein_error>  (564) 


$$$$
C3542-P168
     RDKit          3D

 34 35  0  0  0  0  0  0  0  0999 V2000
   -6.9421   -0.7983   37.2869 C   0  0  0  0  0  0  0  0  0  0  0  0
   -5.4648   -0.9674   37.5970 C   0  0  0  0  0  0  0  0  0  0  0  0
   -4.5618   -1.1990   36.4297 C   0  0  0  0  0  0  0  0  0  0  0  0
   -3.2313   -1.7144   36.5319 C   0  0  0  0  0  0  0  0  0  0  0  0
   -2.6492   -2.2225   37.6576 O   0  0  0  0  0  0  0  0  0  0  0  0
   -1.2241   -2.4593   37.6583 C   0  0  0  0  0  0  0  0  0  0  0  0
   -0.8840   -3.8464   37.9910 N   0  0  0  0  0  0  0  0  0  0  0  0
   -0.4101   -4.7371   37.0313 C   0  0  0  0  0  0  0  0  0  0  0  0
   -0.6401   -4.5462   35.6764 C   0  0  0  0  0  0  0  0  0  0  0  0
   -0.2055   -5.4616   34.7228 C   0  0  0  0  0  0  0  0  0  0  0  0
    0.4806   -6.6094   35.1008 C   0  0  0  0  0  0  0  0  0  0  0  0
    0.6965   -6.8555   36.4478 C   0  0  0  0  0  0  0  0  0  0  0  0
    0.2148   -5.9464   37.3923 C   0  0  0  0  0  0  0  0  0  0  0  0
    0.3419   -6.2594   38.7187 O   0  0  0  0  0  0  0  0  0  0  0  0
   -2.6070   -1.7020   35.3592 N   0  0  0  0  0  0  0  0  0  0  0  0
   -3.5775   -1.3991   34.4844 N   0  0  0  0  0  0  0  0  0  0  0  0
   -4.7279   -0.9616   35.0733 C   0  0  0  0  0  0  0  0  0  0  0  0
   -5.7254   -0.4456   34.3257 N   0  0  0  0  0  0  0  0  0  0  0  0
   -7.1348    0.1556   36.7867 H   0  0  0  0  0  0  0  0  0  0  0  0
   -7.5216   -0.7971   38.2161 H   0  0  0  0  0  0  0  0  0  0  0  0
   -7.3226   -1.6042   36.6524 H   0  0  0  0  0  0  0  0  0  0  0  0
   -5.1156   -0.0765   38.1338 H   0  0  0  0  0  0  0  0  0  0  0  0
   -5.3568   -1.8070   38.2940 H   0  0  0  0  0  0  0  0  0  0  0  0
   -0.7024   -2.0863   36.7691 H   0  0  0  0  0  0  0  0  0  0  0  0
   -0.8389   -1.8396   38.4772 H   0  0  0  0  0  0  0  0  0  0  0  0
   -0.4651   -3.9993   38.9029 H   0  0  0  0  0  0  0  0  0  0  0  0
   -1.1916   -3.6877   35.3153 H   0  0  0  0  0  0  0  0  0  0  0  0
   -0.4177   -5.2735   33.6740 H   0  0  0  0  0  0  0  0  0  0  0  0
    0.8150   -7.3175   34.3520 H   0  0  0  0  0  0  0  0  0  0  0  0
    1.2029   -7.7630   36.7570 H   0  0  0  0  0  0  0  0  0  0  0  0
    0.5200   -7.2118   38.7963 H   0  0  0  0  0  0  0  0  0  0  0  0
   -3.3682   -1.4514   33.4971 H   0  0  0  0  0  0  0  0  0  0  0  0
   -6.4572    0.1019   34.7737 H   0  0  0  0  0  0  0  0  0  0  0  0
   -5.5737   -0.0595   33.3945 H   0  0  0  0  0  0  0  0  0  0  0  0
  1  2  1  0
  2  3  1  0
  3  4  1  0
  4  5  1  0
  5  6  1  0
  6  7  1  0
  7  8  1  0
  8  9  2  0
  9 10  1  0
 10 11  2  0
 11 12  1  0
 12 13  2  0
 13 14  1  0
  4 15  2  0
 15 16  1  0
 16 17  1  0
 17 18  1  0
 17  3  2  0
 13  8  1  0
  1 19  1  0
  1 20  1  0
  1 21  1  0
  2 22  1  0
  2 23  1  0
  6 24  1  0
  6 25  1  0
  7 26  1  0
  9 27  1  0
 10 28  1  0
 11 29  1  0
 12 30  1  0
 14 31  1  0
 16 32  1  0
 18 33  1  0
 18 34  1  0
M  END
>  <Energy>  (565) 
14.141005505938399

>  <compound_id>  (565) 
3542

>  <target_id>  (565) 
1

>  <reference_id>  (565) 
168

>  <inspiration_ids>  (565) 
[121, 168]

>  <energy_score>  (565) 
-34.0770224709914

>  <distance_score>  (565) 
2.163089110357987

>  <path>  (565) 
/opt/xchem-fragalysis-2/maxwin/BulkDock/SCRATCH/505734/C3542-P168/C3542-P168.minimised.mol

>  <scratch_subdir>  (565) 
/opt/xchem-fragalysis-2/maxwin/BulkDock/SCRATCH/505734/C3542-P168

>  <fragmenstein_runtime>  (565) 
10.398010492324829

>  <fragmenstein_outcome>  (565) 
too moved

>  <fragmenstein_mode>  (565) 
expansion

>  <fragmenstein_error>  (565) 


$$$$
C3543-P121
     RDKit          3D

 37 38  0  0  0  0  0  0  0  0999 V2000
    4.9454   -1.8716   29.4594 C   0  0  0  0  0  0  0  0  0  0  0  0
    4.2225   -0.5646   29.2111 C   0  0  0  0  0  0  0  0  0  0  0  0
    4.7887    0.4435   28.9973 O   0  0  0  0  0  0  0  0  0  0  0  0
    2.7389   -0.8653   29.2536 N   0  0  0  0  0  0  0  0  0  0  0  0
    2.1736   -0.6713   30.6653 C   0  0  0  0  0  0  0  0  0  0  0  0
    0.9183   -1.5062   31.0336 C   0  0  0  0  0  0  0  0  0  0  0  0
   -0.2442   -1.0602   30.2518 N   0  0  0  0  0  0  0  0  0  0  0  0
   -1.4147   -1.7749   30.3810 C   0  0  0  0  0  0  0  0  0  0  0  0
   -2.1899   -1.9200   31.4601 C   0  0  0  0  0  0  0  0  0  0  0  0
   -2.0842   -1.2627   32.8196 C   0  0  0  0  0  0  0  0  0  0  0  0
   -3.4217   -0.8473   33.3885 C   0  0  0  0  0  0  0  0  0  0  0  0
   -3.8447    0.4565   33.7520 C   0  0  0  0  0  0  0  0  0  0  0  0
   -5.0968    0.5040   34.2095 N   0  0  0  0  0  0  0  0  0  0  0  0
   -5.5011   -0.7689   34.1164 N   0  0  0  0  0  0  0  0  0  0  0  0
   -4.4844   -1.6244   33.7987 C   0  0  0  0  0  0  0  0  0  0  0  0
   -4.6259   -2.9525   33.9394 N   0  0  0  0  0  0  0  0  0  0  0  0
    0.1772   -0.6876   28.8931 C   0  0  0  0  0  0  0  0  0  0  0  0
    1.5466    0.0106   28.9348 C   0  0  0  0  0  0  0  0  0  0  0  0
    5.6095   -2.0739   28.6144 H   0  0  0  0  0  0  0  0  0  0  0  0
    4.2549   -2.7134   29.5622 H   0  0  0  0  0  0  0  0  0  0  0  0
    5.5319   -1.7840   30.3779 H   0  0  0  0  0  0  0  0  0  0  0  0
    2.1642    0.3680   31.0391 H   0  0  0  0  0  0  0  0  0  0  0  0
    2.9609   -1.1035   31.3044 H   0  0  0  0  0  0  0  0  0  0  0  0
    0.7241   -1.3966   32.1060 H   0  0  0  0  0  0  0  0  0  0  0  0
    1.1201   -2.5662   30.8306 H   0  0  0  0  0  0  0  0  0  0  0  0
   -1.7119   -2.2764   29.4566 H   0  0  0  0  0  0  0  0  0  0  0  0
   -3.0445   -2.5850   31.3615 H   0  0  0  0  0  0  0  0  0  0  0  0
   -1.6228   -1.9749   33.5147 H   0  0  0  0  0  0  0  0  0  0  0  0
   -1.4291   -0.3852   32.7689 H   0  0  0  0  0  0  0  0  0  0  0  0
   -3.2716    1.3735   33.7122 H   0  0  0  0  0  0  0  0  0  0  0  0
   -6.4575   -0.9891   34.3637 H   0  0  0  0  0  0  0  0  0  0  0  0
   -3.7600   -3.4791   34.1286 H   0  0  0  0  0  0  0  0  0  0  0  0
   -5.3571   -3.3015   34.5501 H   0  0  0  0  0  0  0  0  0  0  0  0
    0.2475   -1.5832   28.2626 H   0  0  0  0  0  0  0  0  0  0  0  0
   -0.5650   -0.0141   28.4486 H   0  0  0  0  0  0  0  0  0  0  0  0
    1.5480    1.0228   29.3756 H   0  0  0  0  0  0  0  0  0  0  0  0
    1.7533    0.2614   27.8820 H   0  0  0  0  0  0  0  0  0  0  0  0
  1  2  1  0
  2  3  2  0
  2  4  1  0
  4  5  1  0
  5  6  1  0
  6  7  1  0
  7  8  1  0
  8  9  2  3
  9 10  1  0
 10 11  1  0
 11 12  1  0
 12 13  2  0
 13 14  1  0
 14 15  1  0
 15 16  1  0
  7 17  1  0
 17 18  1  0
 18  4  1  0
 15 11  2  0
  1 19  1  0
  1 20  1  0
  1 21  1  0
  5 22  1  0
  5 23  1  0
  6 24  1  0
  6 25  1  0
  8 26  1  0
  9 27  1  0
 10 28  1  0
 10 29  1  0
 12 30  1  0
 14 31  1  0
 16 32  1  0
 16 33  1  0
 17 34  1  0
 17 35  1  0
 18 36  1  0
 18 37  1  0
M  END
>  <Energy>  (566) 
161.36700621207936

>  <compound_id>  (566) 
3543

>  <target_id>  (566) 
1

>  <reference_id>  (566) 
121

>  <inspiration_ids>  (566) 
[121, 186]

>  <energy_score>  (566) 
19.49648301346565

>  <distance_score>  (566) 
4.03978962038358

>  <path>  (566) 
/opt/xchem-fragalysis-2/maxwin/BulkDock/SCRATCH/505734/C3543-P121/C3543-P121.minimised.mol

>  <scratch_subdir>  (566) 
/opt/xchem-fragalysis-2/maxwin/BulkDock/SCRATCH/505734/C3543-P121

>  <fragmenstein_runtime>  (566) 
3.6788392066955566

>  <fragmenstein_outcome>  (566) 
too moved

>  <fragmenstein_mode>  (566) 
expansion

>  <fragmenstein_error>  (566) 


$$$$
C3543-P186
     RDKit          3D

 37 38  0  0  0  0  0  0  0  0999 V2000
    0.1195   -6.9115   30.6641 C   0  0  0  0  0  0  0  0  0  0  0  0
   -0.1667   -5.5581   31.2619 C   0  0  0  0  0  0  0  0  0  0  0  0
   -1.1661   -5.3348   31.8401 O   0  0  0  0  0  0  0  0  0  0  0  0
    1.0303   -4.6664   30.9901 N   0  0  0  0  0  0  0  0  0  0  0  0
    0.8649   -3.9017   29.6711 C   0  0  0  0  0  0  0  0  0  0  0  0
   -0.4221   -3.0722   29.4596 C   0  0  0  0  0  0  0  0  0  0  0  0
   -0.5035   -1.9880   30.4337 N   0  0  0  0  0  0  0  0  0  0  0  0
   -1.5208   -1.0732   30.3099 C   0  0  0  0  0  0  0  0  0  0  0  0
   -2.3235   -0.4945   31.2109 C   0  0  0  0  0  0  0  0  0  0  0  0
   -2.4552   -0.6796   32.7137 C   0  0  0  0  0  0  0  0  0  0  0  0
   -3.8223   -1.0592   33.2394 C   0  0  0  0  0  0  0  0  0  0  0  0
   -4.7830   -1.9647   32.7197 C   0  0  0  0  0  0  0  0  0  0  0  0
   -5.9058   -2.0510   33.4404 N   0  0  0  0  0  0  0  0  0  0  0  0
   -5.6495   -1.2462   34.4689 N   0  0  0  0  0  0  0  0  0  0  0  0
   -4.3786   -0.7449   34.4624 C   0  0  0  0  0  0  0  0  0  0  0  0
   -3.8871   -0.1034   35.5358 N   0  0  0  0  0  0  0  0  0  0  0  0
    0.1262   -2.3309   31.6979 C   0  0  0  0  0  0  0  0  0  0  0  0
    1.3427   -3.2602   31.4666 C   0  0  0  0  0  0  0  0  0  0  0  0
    0.9392   -6.8737   29.9462 H   0  0  0  0  0  0  0  0  0  0  0  0
   -0.7714   -7.2721   30.1436 H   0  0  0  0  0  0  0  0  0  0  0  0
    0.3662   -7.6008   31.4727 H   0  0  0  0  0  0  0  0  0  0  0  0
    0.7698   -4.7178   28.9430 H   0  0  0  0  0  0  0  0  0  0  0  0
    1.7798   -3.4058   29.3026 H   0  0  0  0  0  0  0  0  0  0  0  0
   -0.4139   -2.6682   28.4398 H   0  0  0  0  0  0  0  0  0  0  0  0
   -1.3046   -3.7118   29.5509 H   0  0  0  0  0  0  0  0  0  0  0  0
   -1.6757   -0.8016   29.2627 H   0  0  0  0  0  0  0  0  0  0  0  0
   -3.0077    0.2427   30.8096 H   0  0  0  0  0  0  0  0  0  0  0  0
   -2.1739    0.2809   33.1663 H   0  0  0  0  0  0  0  0  0  0  0  0
   -1.7529   -1.4086   33.1125 H   0  0  0  0  0  0  0  0  0  0  0  0
   -4.6996   -2.5785   31.8335 H   0  0  0  0  0  0  0  0  0  0  0  0
   -6.3637   -1.1094   35.1715 H   0  0  0  0  0  0  0  0  0  0  0  0
   -2.8789    0.0205   35.6109 H   0  0  0  0  0  0  0  0  0  0  0  0
   -4.3113   -0.2148   36.4538 H   0  0  0  0  0  0  0  0  0  0  0  0
    0.4666   -1.4259   32.2140 H   0  0  0  0  0  0  0  0  0  0  0  0
   -0.5816   -2.8614   32.3419 H   0  0  0  0  0  0  0  0  0  0  0  0
    2.2251   -2.7733   31.0183 H   0  0  0  0  0  0  0  0  0  0  0  0
    1.7046   -3.4654   32.4866 H   0  0  0  0  0  0  0  0  0  0  0  0
  1  2  1  0
  2  3  2  0
  2  4  1  0
  4  5  1  0
  5  6  1  0
  6  7  1  0
  7  8  1  0
  8  9  2  3
  9 10  1  0
 10 11  1  0
 11 12  1  0
 12 13  2  0
 13 14  1  0
 14 15  1  0
 15 16  1  0
  7 17  1  0
 17 18  1  0
 18  4  1  0
 15 11  2  0
  1 19  1  0
  1 20  1  0
  1 21  1  0
  5 22  1  0
  5 23  1  0
  6 24  1  0
  6 25  1  0
  8 26  1  0
  9 27  1  0
 10 28  1  0
 10 29  1  0
 12 30  1  0
 14 31  1  0
 16 32  1  0
 16 33  1  0
 17 34  1  0
 17 35  1  0
 18 36  1  0
 18 37  1  0
M  END
>  <Energy>  (567) 
163.84204911823471

>  <compound_id>  (567) 
3543

>  <target_id>  (567) 
1

>  <reference_id>  (567) 
186

>  <inspiration_ids>  (567) 
[121, 186]

>  <energy_score>  (567) 
21.97152591961884

>  <distance_score>  (567) 
2.4976886547898367

>  <path>  (567) 
/opt/xchem-fragalysis-2/maxwin/BulkDock/SCRATCH/505734/C3543-P186/C3543-P186.minimised.mol

>  <scratch_subdir>  (567) 
/opt/xchem-fragalysis-2/maxwin/BulkDock/SCRATCH/505734/C3543-P186

>  <fragmenstein_runtime>  (567) 
4.333403825759888

>  <fragmenstein_outcome>  (567) 
too moved

>  <fragmenstein_mode>  (567) 
expansion

>  <fragmenstein_error>  (567) 


$$$$
C666-P121
     RDKit          3D

 31 32  0  0  0  0  0  0  0  0999 V2000
   -6.6082   -1.8356   33.7620 N   0  0  0  0  0  0  0  0  0  0  0  0
   -5.4160   -1.2139   33.7877 C   0  0  0  0  0  0  0  0  0  0  0  0
   -4.1446   -1.7070   33.9096 C   0  0  0  0  0  0  0  0  0  0  0  0
   -3.3289   -0.6132   33.5786 C   0  0  0  0  0  0  0  0  0  0  0  0
   -1.8987   -0.6963   33.3062 N   0  0  0  0  0  0  0  0  0  0  0  0
   -1.4497   -1.5934   32.1438 S   0  0  0  0  0  0  0  0  0  0  0  0
    0.0231   -2.2014   32.6869 N   0  0  0  0  0  0  0  0  0  0  0  0
   -2.1116   -2.8169   31.7576 O   0  0  0  0  0  0  0  0  0  0  0  0
   -1.0493   -0.6293   30.7152 C   0  0  0  0  0  0  0  0  0  0  0  0
   -0.5597    0.6667   30.8933 C   0  0  0  0  0  0  0  0  0  0  0  0
   -0.2866    1.4700   29.7826 C   0  0  0  0  0  0  0  0  0  0  0  0
   -0.5894    1.0262   28.5006 C   0  0  0  0  0  0  0  0  0  0  0  0
   -1.0404   -0.2724   28.3304 C   0  0  0  0  0  0  0  0  0  0  0  0
   -1.1836   -1.1302   29.4229 C   0  0  0  0  0  0  0  0  0  0  0  0
   -1.4540   -2.4441   29.1668 O   0  0  0  0  0  0  0  0  0  0  0  0
   -0.2340   -3.1455   28.9254 C   0  0  0  0  0  0  0  0  0  0  0  0
    0.4373   -3.2709   30.1021 F   0  0  0  0  0  0  0  0  0  0  0  0
   -0.5352   -4.4093   28.5320 F   0  0  0  0  0  0  0  0  0  0  0  0
   -4.0112    0.5222   33.4092 N   0  0  0  0  0  0  0  0  0  0  0  0
   -5.2896    0.1431   33.6245 N   0  0  0  0  0  0  0  0  0  0  0  0
   -6.6261   -2.7861   33.4031 H   0  0  0  0  0  0  0  0  0  0  0  0
   -7.4274   -1.3292   33.4235 H   0  0  0  0  0  0  0  0  0  0  0  0
   -3.8438   -2.7304   34.0633 H   0  0  0  0  0  0  0  0  0  0  0  0
   -0.1861   -2.5617   33.6100 H   0  0  0  0  0  0  0  0  0  0  0  0
    0.1896   -3.0152   32.1016 H   0  0  0  0  0  0  0  0  0  0  0  0
   -0.3833    1.0568   31.8946 H   0  0  0  0  0  0  0  0  0  0  0  0
    0.1216    2.4690   29.9259 H   0  0  0  0  0  0  0  0  0  0  0  0
   -0.4427    1.6809   27.6461 H   0  0  0  0  0  0  0  0  0  0  0  0
   -1.2554   -0.6217   27.3346 H   0  0  0  0  0  0  0  0  0  0  0  0
    0.4102   -2.6782   28.1732 H   0  0  0  0  0  0  0  0  0  0  0  0
   -6.0329    0.8369   33.5438 H   0  0  0  0  0  0  0  0  0  0  0  0
  1  2  1  0
  2  3  2  0
  3  4  1  0
  4  5  1  0
  5  6  2  0
  6  7  1  0
  6  8  2  0
  6  9  1  0
  9 10  2  0
 10 11  1  0
 11 12  2  0
 12 13  1  0
 13 14  2  0
 14 15  1  0
 15 16  1  0
 16 17  1  0
 16 18  1  0
  4 19  2  0
 19 20  1  0
 20  2  1  0
 14  9  1  0
  1 21  1  0
  1 22  1  0
  3 23  1  0
  7 24  1  0
  7 25  1  0
 10 26  1  0
 11 27  1  0
 12 28  1  0
 13 29  1  0
 16 30  1  0
 20 31  1  0
M  END
>  <Energy>  (568) 
-89.669448493717596

>  <compound_id>  (568) 
666

>  <target_id>  (568) 
1

>  <reference_id>  (568) 
121

>  <inspiration_ids>  (568) 
[121, 195]

>  <energy_score>  (568) 
-55.7443491344461

>  <distance_score>  (568) 
1.6780051302225911

>  <path>  (568) 
/opt/xchem-fragalysis-2/maxwin/BulkDock/SCRATCH/505734/C666-P121/C666-P121.minimised.mol

>  <scratch_subdir>  (568) 
/opt/xchem-fragalysis-2/maxwin/BulkDock/SCRATCH/505734/C666-P121

>  <fragmenstein_runtime>  (568) 
4.31774640083313

>  <fragmenstein_outcome>  (568) 
too moved

>  <fragmenstein_mode>  (568) 
expansion

>  <fragmenstein_error>  (568) 


$$$$
C666-P195
     RDKit          3D

 31 32  0  0  0  0  0  0  0  0999 V2000
   -6.5137   -2.1105   34.4450 N   0  0  0  0  0  0  0  0  0  0  0  0
   -5.4448   -1.3522   34.1619 C   0  0  0  0  0  0  0  0  0  0  0  0
   -4.1063   -1.5498   34.3785 C   0  0  0  0  0  0  0  0  0  0  0  0
   -3.4929   -0.5884   33.5726 C   0  0  0  0  0  0  0  0  0  0  0  0
   -2.0776   -0.4848   33.2901 N   0  0  0  0  0  0  0  0  0  0  0  0
   -1.2353   -1.3593   32.3584 S   0  0  0  0  0  0  0  0  0  0  0  0
   -1.8871   -2.9125   32.4262 N   0  0  0  0  0  0  0  0  0  0  0  0
    0.1439   -1.7113   32.6095 O   0  0  0  0  0  0  0  0  0  0  0  0
   -1.2203   -0.7453   30.6980 C   0  0  0  0  0  0  0  0  0  0  0  0
   -0.7877    0.5618   30.4845 C   0  0  0  0  0  0  0  0  0  0  0  0
   -0.7870    1.1074   29.1923 C   0  0  0  0  0  0  0  0  0  0  0  0
   -1.2218    0.3504   28.1096 C   0  0  0  0  0  0  0  0  0  0  0  0
   -1.5509   -0.9832   28.3106 C   0  0  0  0  0  0  0  0  0  0  0  0
   -1.4768   -1.5453   29.5882 C   0  0  0  0  0  0  0  0  0  0  0  0
   -1.5716   -2.9044   29.6780 O   0  0  0  0  0  0  0  0  0  0  0  0
   -0.2614   -3.4659   29.5995 C   0  0  0  0  0  0  0  0  0  0  0  0
   -0.3016   -4.6404   30.2864 F   0  0  0  0  0  0  0  0  0  0  0  0
    0.0245   -3.7664   28.3150 F   0  0  0  0  0  0  0  0  0  0  0  0
   -4.3591    0.3229   33.1339 N   0  0  0  0  0  0  0  0  0  0  0  0
   -5.5523   -0.1421   33.5420 N   0  0  0  0  0  0  0  0  0  0  0  0
   -7.3878   -1.9729   33.9341 H   0  0  0  0  0  0  0  0  0  0  0  0
   -6.3201   -3.0903   34.6084 H   0  0  0  0  0  0  0  0  0  0  0  0
   -3.6344   -2.3355   34.9374 H   0  0  0  0  0  0  0  0  0  0  0  0
   -2.0974   -3.0645   33.4102 H   0  0  0  0  0  0  0  0  0  0  0  0
   -1.0750   -3.5056   32.2780 H   0  0  0  0  0  0  0  0  0  0  0  0
   -0.4583    1.1698   31.3253 H   0  0  0  0  0  0  0  0  0  0  0  0
   -0.4802    2.1406   29.0382 H   0  0  0  0  0  0  0  0  0  0  0  0
   -1.2667    0.7789   27.1126 H   0  0  0  0  0  0  0  0  0  0  0  0
   -1.8346   -1.6010   27.4621 H   0  0  0  0  0  0  0  0  0  0  0  0
    0.5377   -2.8466   30.0230 H   0  0  0  0  0  0  0  0  0  0  0  0
   -6.3957    0.3886   33.3195 H   0  0  0  0  0  0  0  0  0  0  0  0
  1  2  1  0
  2  3  2  0
  3  4  1  0
  4  5  1  0
  5  6  2  0
  6  7  1  0
  6  8  2  0
  6  9  1  0
  9 10  2  0
 10 11  1  0
 11 12  2  0
 12 13  1  0
 13 14  2  0
 14 15  1  0
 15 16  1  0
 16 17  1  0
 16 18  1  0
  4 19  2  0
 19 20  1  0
 20  2  1  0
 14  9  1  0
  1 21  1  0
  1 22  1  0
  3 23  1  0
  7 24  1  0
  7 25  1  0
 10 26  1  0
 11 27  1  0
 12 28  1  0
 13 29  1  0
 16 30  1  0
 20 31  1  0
M  END
>  <Energy>  (569) 
-78.099073936313914

>  <compound_id>  (569) 
666

>  <target_id>  (569) 
1

>  <reference_id>  (569) 
195

>  <inspiration_ids>  (569) 
[121, 195]

>  <energy_score>  (569) 
-44.17397457704219

>  <distance_score>  (569) 
1.642147630366222

>  <path>  (569) 
/opt/xchem-fragalysis-2/maxwin/BulkDock/SCRATCH/505734/C666-P195/C666-P195.minimised.mol

>  <scratch_subdir>  (569) 
/opt/xchem-fragalysis-2/maxwin/BulkDock/SCRATCH/505734/C666-P195

>  <fragmenstein_runtime>  (569) 
3.675138473510742

>  <fragmenstein_outcome>  (569) 
too moved

>  <fragmenstein_mode>  (569) 
expansion

>  <fragmenstein_error>  (569) 


$$$$
C3555-P122
     RDKit          3D

 48 49  0  0  0  0  0  0  0  0999 V2000
   14.7902    4.9399   16.8799 C   0  0  0  0  0  0  0  0  0  0  0  0
   13.9320    3.6975   16.6915 C   0  0  0  0  0  0  0  0  0  0  0  0
   12.6201    4.0232   15.9806 C   0  0  0  0  0  0  0  0  0  0  0  0
   11.7605    2.7708   15.8675 C   0  0  0  0  0  0  0  0  0  0  0  0
   12.4726    1.6315   15.1377 C   0  0  0  0  0  0  0  0  0  0  0  0
   12.4955    1.8713   13.6175 C   0  0  0  0  0  0  0  0  0  0  0  0
   13.3015    0.9384   12.7043 C   0  0  0  0  0  0  0  0  0  0  0  0
   13.5410   -0.5014   13.1445 C   0  0  0  0  0  0  0  0  0  0  0  0
   12.3305   -1.1386   13.6028 N   0  0  0  0  0  0  0  0  0  0  0  0
   12.3566   -2.1191   14.5279 C   0  0  0  0  0  0  0  0  0  0  0  0
   13.3417   -2.7257   15.2692 C   0  0  0  0  0  0  0  0  0  0  0  0
   12.6638   -3.5660   16.1695 C   0  0  0  0  0  0  0  0  0  0  0  0
   11.3469   -3.5378   15.9741 N   0  0  0  0  0  0  0  0  0  0  0  0
   11.1920   -2.6963   14.9416 N   0  0  0  0  0  0  0  0  0  0  0  0
   13.8330    1.3680   15.7419 N   0  0  0  0  0  0  0  0  0  0  0  0
   13.7871    0.2928   17.0915 S   0  0  0  0  0  0  0  0  0  0  0  0
   15.3265   -0.5840   16.8923 C   0  0  0  0  0  0  0  0  0  0  0  0
   13.9102    1.0665   18.3075 O   0  0  0  0  0  0  0  0  0  0  0  0
   12.6736   -0.6023   16.9122 O   0  0  0  0  0  0  0  0  0  0  0  0
   14.7108    2.5699   16.0026 C   0  0  0  0  0  0  0  0  0  0  0  0
   15.4830    2.9667   14.7318 C   0  0  0  0  0  0  0  0  0  0  0  0
   16.2084    1.8385   14.2391 O   0  0  0  0  0  0  0  0  0  0  0  0
   14.2742    5.6660   17.5182 H   0  0  0  0  0  0  0  0  0  0  0  0
   15.0016    5.4409   15.9296 H   0  0  0  0  0  0  0  0  0  0  0  0
   15.7416    4.6950   17.3637 H   0  0  0  0  0  0  0  0  0  0  0  0
   13.6627    3.3688   17.7021 H   0  0  0  0  0  0  0  0  0  0  0  0
   12.0687    4.7820   16.5495 H   0  0  0  0  0  0  0  0  0  0  0  0
   12.8112    4.4562   14.9927 H   0  0  0  0  0  0  0  0  0  0  0  0
   11.4920    2.4387   16.8756 H   0  0  0  0  0  0  0  0  0  0  0  0
   10.8176    3.0162   15.3641 H   0  0  0  0  0  0  0  0  0  0  0  0
   11.8373    0.7525   15.2696 H   0  0  0  0  0  0  0  0  0  0  0  0
   12.7957    2.8986   13.3865 H   0  0  0  0  0  0  0  0  0  0  0  0
   11.4496    1.8207   13.2790 H   0  0  0  0  0  0  0  0  0  0  0  0
   14.2772    1.3937   12.5019 H   0  0  0  0  0  0  0  0  0  0  0  0
   12.7977    0.9351   11.7313 H   0  0  0  0  0  0  0  0  0  0  0  0
   14.3117   -0.5149   13.9168 H   0  0  0  0  0  0  0  0  0  0  0  0
   13.9509   -1.0695   12.3007 H   0  0  0  0  0  0  0  0  0  0  0  0
   11.4507   -0.9134   13.1332 H   0  0  0  0  0  0  0  0  0  0  0  0
   14.4051   -2.5893   15.1872 H   0  0  0  0  0  0  0  0  0  0  0  0
   13.0678   -4.2116   16.9385 H   0  0  0  0  0  0  0  0  0  0  0  0
   10.2672   -2.5231   14.5615 H   0  0  0  0  0  0  0  0  0  0  0  0
   15.2879   -1.4813   17.5134 H   0  0  0  0  0  0  0  0  0  0  0  0
   15.4734   -0.8494   15.8483 H   0  0  0  0  0  0  0  0  0  0  0  0
   16.1447    0.0570   17.2260 H   0  0  0  0  0  0  0  0  0  0  0  0
   15.5031    2.2539   16.6955 H   0  0  0  0  0  0  0  0  0  0  0  0
   16.2225    3.7441   14.9434 H   0  0  0  0  0  0  0  0  0  0  0  0
   14.8350    3.3373   13.9371 H   0  0  0  0  0  0  0  0  0  0  0  0
   15.6050    1.0825   14.3506 H   0  0  0  0  0  0  0  0  0  0  0  0
  1  2  1  0
  2  3  1  0
  3  4  1  0
  4  5  1  0
  5  6  1  0
  6  7  1  0
  7  8  1  0
  8  9  1  0
  9 10  1  0
 10 11  2  0
 11 12  1  0
 12 13  2  0
 13 14  1  0
  5 15  1  0
 15 16  1  0
 16 17  1  0
 16 18  2  0
 16 19  2  0
 15 20  1  0
 20 21  1  0
 21 22  1  0
 20  2  1  0
 14 10  1  0
  1 23  1  0
  1 24  1  0
  1 25  1  0
  2 26  1  0
  3 27  1  0
  3 28  1  0
  4 29  1  0
  4 30  1  0
  5 31  1  0
  6 32  1  0
  6 33  1  0
  7 34  1  0
  7 35  1  0
  8 36  1  0
  8 37  1  0
  9 38  1  0
 11 39  1  0
 12 40  1  0
 14 41  1  0
 17 42  1  0
 17 43  1  0
 17 44  1  0
 20 45  1  0
 21 46  1  0
 21 47  1  0
 22 48  1  0
M  END
>  <Energy>  (570) 
20.220016800691102

>  <compound_id>  (570) 
3555

>  <target_id>  (570) 
1

>  <reference_id>  (570) 
122

>  <inspiration_ids>  (570) 
[122, 5]

>  <energy_score>  (570) 
-58.41357695912106

>  <distance_score>  (570) 
1.3566221719116645

>  <path>  (570) 
/opt/xchem-fragalysis-2/maxwin/BulkDock/SCRATCH/505734/C3555-P122/C3555-P122.minimised.mol

>  <scratch_subdir>  (570) 
/opt/xchem-fragalysis-2/maxwin/BulkDock/SCRATCH/505734/C3555-P122

>  <fragmenstein_runtime>  (570) 
1.5319981575012207

>  <fragmenstein_outcome>  (570) 
too moved

>  <fragmenstein_mode>  (570) 
expansion

>  <fragmenstein_error>  (570) 


$$$$
C3555-P5
     RDKit          3D

 48 49  0  0  0  0  0  0  0  0999 V2000
   14.6723    4.5656   16.7851 C   0  0  0  0  0  0  0  0  0  0  0  0
   13.7677    3.6449   15.9682 C   0  0  0  0  0  0  0  0  0  0  0  0
   13.5542    4.1907   14.5604 C   0  0  0  0  0  0  0  0  0  0  0  0
   12.6196    3.2917   13.7627 C   0  0  0  0  0  0  0  0  0  0  0  0
   13.0831    1.8373   13.6736 C   0  0  0  0  0  0  0  0  0  0  0  0
   14.2302    1.5701   12.6862 C   0  0  0  0  0  0  0  0  0  0  0  0
   14.4251    0.1056   12.2278 C   0  0  0  0  0  0  0  0  0  0  0  0
   14.5087   -1.0011   13.2881 C   0  0  0  0  0  0  0  0  0  0  0  0
   13.2060   -1.5984   13.5632 N   0  0  0  0  0  0  0  0  0  0  0  0
   13.0231   -2.4356   14.6181 C   0  0  0  0  0  0  0  0  0  0  0  0
   13.8469   -2.9882   15.5736 C   0  0  0  0  0  0  0  0  0  0  0  0
   12.9846   -3.7036   16.4281 C   0  0  0  0  0  0  0  0  0  0  0  0
   11.7024   -3.5634   16.0834 N   0  0  0  0  0  0  0  0  0  0  0  0
   11.7576   -2.8755   14.9273 N   0  0  0  0  0  0  0  0  0  0  0  0
   13.4239    1.3307   15.0254 N   0  0  0  0  0  0  0  0  0  0  0  0
   12.0824    0.6175   15.7943 S   0  0  0  0  0  0  0  0  0  0  0  0
   12.9699   -0.3693   16.9797 C   0  0  0  0  0  0  0  0  0  0  0  0
   11.3443   -0.1889   14.8523 O   0  0  0  0  0  0  0  0  0  0  0  0
   11.3571    1.6680   16.4568 O   0  0  0  0  0  0  0  0  0  0  0  0
   14.2872    2.2037   15.9236 C   0  0  0  0  0  0  0  0  0  0  0  0
   15.8045    2.0980   15.6279 C   0  0  0  0  0  0  0  0  0  0  0  0
   16.2794    0.7590   15.5608 O   0  0  0  0  0  0  0  0  0  0  0  0
   15.6287    4.7547   16.2870 H   0  0  0  0  0  0  0  0  0  0  0  0
   14.8699    4.1455   17.7768 H   0  0  0  0  0  0  0  0  0  0  0  0
   14.1887    5.5382   16.9303 H   0  0  0  0  0  0  0  0  0  0  0  0
   12.7940    3.6504   16.4723 H   0  0  0  0  0  0  0  0  0  0  0  0
   13.1218    5.1974   14.6132 H   0  0  0  0  0  0  0  0  0  0  0  0
   14.5106    4.2907   14.0335 H   0  0  0  0  0  0  0  0  0  0  0  0
   11.6262    3.3248   14.2288 H   0  0  0  0  0  0  0  0  0  0  0  0
   12.4922    3.7046   12.7547 H   0  0  0  0  0  0  0  0  0  0  0  0
   12.2328    1.2889   13.2522 H   0  0  0  0  0  0  0  0  0  0  0  0
   15.1828    1.9358   13.0651 H   0  0  0  0  0  0  0  0  0  0  0  0
   14.0449    2.1568   11.7761 H   0  0  0  0  0  0  0  0  0  0  0  0
   15.3662    0.0886   11.6613 H   0  0  0  0  0  0  0  0  0  0  0  0
   13.6468   -0.1362   11.5025 H   0  0  0  0  0  0  0  0  0  0  0  0
   14.9765   -0.6346   14.1987 H   0  0  0  0  0  0  0  0  0  0  0  0
   15.1566   -1.7962   12.8982 H   0  0  0  0  0  0  0  0  0  0  0  0
   12.3999   -1.0093   13.3288 H   0  0  0  0  0  0  0  0  0  0  0  0
   14.9212   -2.9043   15.6378 H   0  0  0  0  0  0  0  0  0  0  0  0
   13.2318   -4.3041   17.2944 H   0  0  0  0  0  0  0  0  0  0  0  0
   10.9011   -2.6408   14.4322 H   0  0  0  0  0  0  0  0  0  0  0  0
   13.2137    0.2242   17.8598 H   0  0  0  0  0  0  0  0  0  0  0  0
   13.9087   -0.7026   16.5471 H   0  0  0  0  0  0  0  0  0  0  0  0
   12.3399   -1.2074   17.2434 H   0  0  0  0  0  0  0  0  0  0  0  0
   14.2025    1.8196   16.9447 H   0  0  0  0  0  0  0  0  0  0  0  0
   16.3737    2.5749   16.4330 H   0  0  0  0  0  0  0  0  0  0  0  0
   16.0916    2.6135   14.7106 H   0  0  0  0  0  0  0  0  0  0  0  0
   15.9557    0.2852   16.3442 H   0  0  0  0  0  0  0  0  0  0  0  0
  1  2  1  0
  2  3  1  0
  3  4  1  0
  4  5  1  0
  5  6  1  0
  6  7  1  0
  7  8  1  0
  8  9  1  0
  9 10  1  0
 10 11  2  0
 11 12  1  0
 12 13  2  0
 13 14  1  0
  5 15  1  0
 15 16  1  0
 16 17  1  0
 16 18  2  0
 16 19  2  0
 15 20  1  0
 20 21  1  0
 21 22  1  0
 20  2  1  0
 14 10  1  0
  1 23  1  0
  1 24  1  0
  1 25  1  0
  2 26  1  0
  3 27  1  0
  3 28  1  0
  4 29  1  0
  4 30  1  0
  5 31  1  0
  6 32  1  0
  6 33  1  0
  7 34  1  0
  7 35  1  0
  8 36  1  0
  8 37  1  0
  9 38  1  0
 11 39  1  0
 12 40  1  0
 14 41  1  0
 17 42  1  0
 17 43  1  0
 17 44  1  0
 20 45  1  0
 21 46  1  0
 21 47  1  0
 22 48  1  0
M  END
>  <Energy>  (571) 
20.493559676390646

>  <compound_id>  (571) 
3555

>  <target_id>  (571) 
1

>  <reference_id>  (571) 
5

>  <inspiration_ids>  (571) 
[122, 5]

>  <energy_score>  (571) 
-58.140034083420176

>  <distance_score>  (571) 
1.7909792983453425

>  <path>  (571) 
/opt/xchem-fragalysis-2/maxwin/BulkDock/SCRATCH/505734/C3555-P5/C3555-P5.minimised.mol

>  <scratch_subdir>  (571) 
/opt/xchem-fragalysis-2/maxwin/BulkDock/SCRATCH/505734/C3555-P5

>  <fragmenstein_runtime>  (571) 
1.4177889823913574

>  <fragmenstein_outcome>  (571) 
too moved

>  <fragmenstein_mode>  (571) 
expansion

>  <fragmenstein_error>  (571) 


$$$$
C3558-P122
     RDKit          3D

 24 25  0  0  0  0  0  0  0  0999 V2000
   15.0039   -0.9544   21.0655 C   0  0  0  0  0  0  0  0  0  0  0  0
   15.1434   -2.2545   20.3037 C   0  0  0  0  0  0  0  0  0  0  0  0
   14.9384   -3.3013   20.7737 O   0  0  0  0  0  0  0  0  0  0  0  0
   15.5842   -1.8669   18.8687 N   0  0  0  0  0  0  0  0  0  0  0  0
   15.9540   -2.6942   17.7483 C   0  0  0  0  0  0  0  0  0  0  0  0
   14.8170   -3.6185   17.3059 C   0  0  0  0  0  0  0  0  0  0  0  0
   13.6792   -2.9742   16.6098 C   0  0  0  0  0  0  0  0  0  0  0  0
   13.4615   -1.7727   16.0995 C   0  0  0  0  0  0  0  0  0  0  0  0
   13.9117   -0.4407   15.8249 C   0  0  0  0  0  0  0  0  0  0  0  0
   15.1025    0.0181   16.1905 F   0  0  0  0  0  0  0  0  0  0  0  0
   13.0120    0.2781   15.2054 N   0  0  0  0  0  0  0  0  0  0  0  0
   11.8212   -0.5870   15.0156 N   0  0  0  0  0  0  0  0  0  0  0  0
   12.1390   -1.7300   15.5341 C   0  0  0  0  0  0  0  0  0  0  0  0
   11.5049   -2.9095   15.7165 N   0  0  0  0  0  0  0  0  0  0  0  0
   12.3899   -3.6341   16.3296 C   0  0  0  0  0  0  0  0  0  0  0  0
   14.6617   -1.1641   22.0830 H   0  0  0  0  0  0  0  0  0  0  0  0
   15.9725   -0.4501   21.1204 H   0  0  0  0  0  0  0  0  0  0  0  0
   14.2709   -0.3082   20.5751 H   0  0  0  0  0  0  0  0  0  0  0  0
   15.7506   -0.8662   18.8234 H   0  0  0  0  0  0  0  0  0  0  0  0
   16.3042   -2.0499   16.9369 H   0  0  0  0  0  0  0  0  0  0  0  0
   16.7976   -3.3075   18.0828 H   0  0  0  0  0  0  0  0  0  0  0  0
   15.2390   -4.3665   16.6233 H   0  0  0  0  0  0  0  0  0  0  0  0
   14.4347   -4.1692   18.1738 H   0  0  0  0  0  0  0  0  0  0  0  0
   12.2336   -4.6754   16.6429 H   0  0  0  0  0  0  0  0  0  0  0  0
  1  2  1  0
  2  3  2  0
  2  4  1  0
  4  5  1  0
  5  6  1  0
  6  7  1  0
  7  8  2  0
  8  9  1  0
  9 10  1  0
  9 11  2  0
 11 12  1  0
 12 13  2  0
 13 14  1  0
 14 15  2  0
 15  7  1  0
 13  8  1  0
  1 16  1  0
  1 17  1  0
  1 18  1  0
  4 19  1  0
  5 20  1  0
  5 21  1  0
  6 22  1  0
  6 23  1  0
 15 24  1  0
M  END
>  <Energy>  (572) 
29.078586107981462

>  <compound_id>  (572) 
3558

>  <target_id>  (572) 
1

>  <reference_id>  (572) 
122

>  <inspiration_ids>  (572) 
[122, 10]

>  <energy_score>  (572) 
-5.065522486115043

>  <distance_score>  (572) 
1.8364291306120546

>  <path>  (572) 
/opt/xchem-fragalysis-2/maxwin/BulkDock/SCRATCH/505734/C3558-P122/C3558-P122.minimised.mol

>  <scratch_subdir>  (572) 
/opt/xchem-fragalysis-2/maxwin/BulkDock/SCRATCH/505734/C3558-P122

>  <fragmenstein_runtime>  (572) 
1.0819592475891113

>  <fragmenstein_outcome>  (572) 
too moved

>  <fragmenstein_mode>  (572) 
expansion

>  <fragmenstein_error>  (572) 


$$$$
C3558-P10
     RDKit          3D

 24 25  0  0  0  0  0  0  0  0999 V2000
   17.5241   -2.2334   13.7112 C   0  0  0  0  0  0  0  0  0  0  0  0
   17.2396   -2.3203   15.1948 C   0  0  0  0  0  0  0  0  0  0  0  0
   17.6222   -1.5387   15.9695 O   0  0  0  0  0  0  0  0  0  0  0  0
   16.3620   -3.5796   15.3909 N   0  0  0  0  0  0  0  0  0  0  0  0
   15.8536   -4.1883   16.5957 C   0  0  0  0  0  0  0  0  0  0  0  0
   14.9404   -3.2601   17.4042 C   0  0  0  0  0  0  0  0  0  0  0  0
   13.7574   -2.8212   16.6336 C   0  0  0  0  0  0  0  0  0  0  0  0
   13.4856   -1.6750   16.0331 C   0  0  0  0  0  0  0  0  0  0  0  0
   13.8716   -0.3420   15.6855 C   0  0  0  0  0  0  0  0  0  0  0  0
   15.0142    0.2116   16.0656 F   0  0  0  0  0  0  0  0  0  0  0  0
   12.9570    0.2713   14.9773 N   0  0  0  0  0  0  0  0  0  0  0  0
   11.8276   -0.6803   14.8024 N   0  0  0  0  0  0  0  0  0  0  0  0
   12.1902   -1.7596   15.4177 C   0  0  0  0  0  0  0  0  0  0  0  0
   11.6260   -2.9657   15.6615 N   0  0  0  0  0  0  0  0  0  0  0  0
   12.5293   -3.5819   16.3617 C   0  0  0  0  0  0  0  0  0  0  0  0
   18.0961   -3.1079   13.3896 H   0  0  0  0  0  0  0  0  0  0  0  0
   18.1136   -1.3350   13.5066 H   0  0  0  0  0  0  0  0  0  0  0  0
   16.5856   -2.1694   13.1535 H   0  0  0  0  0  0  0  0  0  0  0  0
   16.2870   -4.0840   14.5070 H   0  0  0  0  0  0  0  0  0  0  0  0
   15.3249   -5.0965   16.3012 H   0  0  0  0  0  0  0  0  0  0  0  0
   16.7176   -4.4710   17.2055 H   0  0  0  0  0  0  0  0  0  0  0  0
   14.6111   -3.7778   18.3128 H   0  0  0  0  0  0  0  0  0  0  0  0
   15.5104   -2.3833   17.7352 H   0  0  0  0  0  0  0  0  0  0  0  0
   12.4274   -4.6036   16.7487 H   0  0  0  0  0  0  0  0  0  0  0  0
  1  2  1  0
  2  3  2  0
  2  4  1  0
  4  5  1  0
  5  6  1  0
  6  7  1  0
  7  8  2  0
  8  9  1  0
  9 10  1  0
  9 11  2  0
 11 12  1  0
 12 13  2  0
 13 14  1  0
 14 15  2  0
 15  7  1  0
 13  8  1  0
  1 16  1  0
  1 17  1  0
  1 18  1  0
  4 19  1  0
  5 20  1  0
  5 21  1  0
  6 22  1  0
  6 23  1  0
 15 24  1  0
M  END
>  <Energy>  (573) 
29.657403804935445

>  <compound_id>  (573) 
3558

>  <target_id>  (573) 
1

>  <reference_id>  (573) 
10

>  <inspiration_ids>  (573) 
[122, 10]

>  <energy_score>  (573) 
-4.486704789161337

>  <distance_score>  (573) 
0.9697874696991265

>  <path>  (573) 
/opt/xchem-fragalysis-2/maxwin/BulkDock/SCRATCH/505734/C3558-P10/C3558-P10.minimised.mol

>  <scratch_subdir>  (573) 
/opt/xchem-fragalysis-2/maxwin/BulkDock/SCRATCH/505734/C3558-P10

>  <fragmenstein_runtime>  (573) 
1.0883266925811768

>  <fragmenstein_outcome>  (573) 
acceptable

>  <fragmenstein_mode>  (573) 
expansion

>  <fragmenstein_error>  (573) 


$$$$
C3562-P122
     RDKit          3D

 24 24  0  0  0  0  0  0  0  0999 V2000
   17.4913   -3.5912   18.2449 C   0  0  0  0  0  0  0  0  0  0  0  0
   15.9669   -3.6843   17.3396 S   0  0  0  0  0  0  0  0  0  0  0  0
   15.0553   -4.5000   18.1200 O   0  0  0  0  0  0  0  0  0  0  0  0
   16.3046   -4.0579   15.9804 O   0  0  0  0  0  0  0  0  0  0  0  0
   15.3888   -2.0007   17.3610 C   0  0  0  0  0  0  0  0  0  0  0  0
   14.6722   -1.5540   16.0979 C   0  0  0  0  0  0  0  0  0  0  0  0
   15.5462   -1.6302   14.9667 O   0  0  0  0  0  0  0  0  0  0  0  0
   13.3163   -2.0936   15.8011 C   0  0  0  0  0  0  0  0  0  0  0  0
   12.6152   -3.1670   16.3954 C   0  0  0  0  0  0  0  0  0  0  0  0
   11.3983   -3.3423   15.8799 N   0  0  0  0  0  0  0  0  0  0  0  0
   11.3167   -2.4155   14.9167 N   0  0  0  0  0  0  0  0  0  0  0  0
   12.4141   -1.6043   14.8745 C   0  0  0  0  0  0  0  0  0  0  0  0
   12.4607   -0.5619   14.0233 N   0  0  0  0  0  0  0  0  0  0  0  0
   17.2840   -3.2070   19.2453 H   0  0  0  0  0  0  0  0  0  0  0  0
   17.9098   -4.5978   18.3109 H   0  0  0  0  0  0  0  0  0  0  0  0
   18.1820   -2.9354   17.7117 H   0  0  0  0  0  0  0  0  0  0  0  0
   14.7679   -1.8754   18.2539 H   0  0  0  0  0  0  0  0  0  0  0  0
   16.2879   -1.3850   17.4802 H   0  0  0  0  0  0  0  0  0  0  0  0
   14.5178   -0.4746   16.2401 H   0  0  0  0  0  0  0  0  0  0  0  0
   15.6483   -2.5822   14.7466 H   0  0  0  0  0  0  0  0  0  0  0  0
   12.9119   -3.8349   17.1924 H   0  0  0  0  0  0  0  0  0  0  0  0
   10.4875   -2.3613   14.3260 H   0  0  0  0  0  0  0  0  0  0  0  0
   13.3754   -0.2277   13.7213 H   0  0  0  0  0  0  0  0  0  0  0  0
   11.7569   -0.4831   13.2871 H   0  0  0  0  0  0  0  0  0  0  0  0
  1  2  1  0
  2  3  2  0
  2  4  2  0
  2  5  1  0
  5  6  1  0
  6  7  1  0
  6  8  1  0
  8  9  1  0
  9 10  2  0
 10 11  1  0
 11 12  1  0
 12 13  1  0
 12  8  2  0
  1 14  1  0
  1 15  1  0
  1 16  1  0
  5 17  1  0
  5 18  1  0
  6 19  1  0
  7 20  1  0
  9 21  1  0
 11 22  1  0
 13 23  1  0
 13 24  1  0
M  END
>  <Energy>  (574) 
10.55455083706863

>  <compound_id>  (574) 
3562

>  <target_id>  (574) 
1

>  <reference_id>  (574) 
122

>  <inspiration_ids>  (574) 
[122, 23]

>  <energy_score>  (574) 
-46.16282109224335

>  <distance_score>  (574) 
0.7102629065033567

>  <path>  (574) 
/opt/xchem-fragalysis-2/maxwin/BulkDock/SCRATCH/505734/C3562-P122/C3562-P122.minimised.mol

>  <scratch_subdir>  (574) 
/opt/xchem-fragalysis-2/maxwin/BulkDock/SCRATCH/505734/C3562-P122

>  <fragmenstein_runtime>  (574) 
1.0130627155303955

>  <fragmenstein_outcome>  (574) 
acceptable

>  <fragmenstein_mode>  (574) 
expansion

>  <fragmenstein_error>  (574) 


$$$$
C3562-P23
     RDKit          3D

 24 24  0  0  0  0  0  0  0  0999 V2000
   17.4891   -3.6583   18.3200 C   0  0  0  0  0  0  0  0  0  0  0  0
   16.0137   -3.7790   17.3406 S   0  0  0  0  0  0  0  0  0  0  0  0
   15.0527   -4.5517   18.1049 O   0  0  0  0  0  0  0  0  0  0  0  0
   16.4201   -4.2108   16.0188 O   0  0  0  0  0  0  0  0  0  0  0  0
   15.4555   -2.0923   17.2628 C   0  0  0  0  0  0  0  0  0  0  0  0
   14.7889   -1.7029   15.9555 C   0  0  0  0  0  0  0  0  0  0  0  0
   15.6910   -1.8489   14.8577 O   0  0  0  0  0  0  0  0  0  0  0  0
   13.4201   -2.2127   15.6545 C   0  0  0  0  0  0  0  0  0  0  0  0
   12.6660   -3.2292   16.2884 C   0  0  0  0  0  0  0  0  0  0  0  0
   11.4298   -3.3419   15.7979 N   0  0  0  0  0  0  0  0  0  0  0  0
   11.4050   -2.4692   14.7829 N   0  0  0  0  0  0  0  0  0  0  0  0
   12.5360   -1.7082   14.7176 C   0  0  0  0  0  0  0  0  0  0  0  0
   12.6151   -0.6801   13.8572 N   0  0  0  0  0  0  0  0  0  0  0  0
   17.8935   -4.6642   18.4515 H   0  0  0  0  0  0  0  0  0  0  0  0
   18.2137   -3.0318   17.7966 H   0  0  0  0  0  0  0  0  0  0  0  0
   17.2336   -3.2294   19.2907 H   0  0  0  0  0  0  0  0  0  0  0  0
   14.8074   -1.9158   18.1272 H   0  0  0  0  0  0  0  0  0  0  0  0
   16.3581   -1.4813   17.3813 H   0  0  0  0  0  0  0  0  0  0  0  0
   14.6607   -0.6139   16.0403 H   0  0  0  0  0  0  0  0  0  0  0  0
   15.7694   -2.8092   14.6664 H   0  0  0  0  0  0  0  0  0  0  0  0
   12.9335   -3.8850   17.1061 H   0  0  0  0  0  0  0  0  0  0  0  0
   10.5796   -2.3976   14.1906 H   0  0  0  0  0  0  0  0  0  0  0  0
   13.4148   -0.0506   13.8742 H   0  0  0  0  0  0  0  0  0  0  0  0
   11.7749   -0.2395   13.4830 H   0  0  0  0  0  0  0  0  0  0  0  0
  1  2  1  0
  2  3  2  0
  2  4  2  0
  2  5  1  0
  5  6  1  0
  6  7  1  0
  6  8  1  0
  8  9  1  0
  9 10  2  0
 10 11  1  0
 11 12  1  0
 12 13  1  0
 12  8  2  0
  1 14  1  0
  1 15  1  0
  1 16  1  0
  5 17  1  0
  5 18  1  0
  6 19  1  0
  7 20  1  0
  9 21  1  0
 11 22  1  0
 13 23  1  0
 13 24  1  0
M  END
>  <Energy>  (575) 
11.788751834070002

>  <compound_id>  (575) 
3562

>  <target_id>  (575) 
1

>  <reference_id>  (575) 
23

>  <inspiration_ids>  (575) 
[122, 23]

>  <energy_score>  (575) 
-44.928620095241925

>  <distance_score>  (575) 
0.816647520009367

>  <path>  (575) 
/opt/xchem-fragalysis-2/maxwin/BulkDock/SCRATCH/505734/C3562-P23/C3562-P23.minimised.mol

>  <scratch_subdir>  (575) 
/opt/xchem-fragalysis-2/maxwin/BulkDock/SCRATCH/505734/C3562-P23

>  <fragmenstein_runtime>  (575) 
1.0855185985565186

>  <fragmenstein_outcome>  (575) 
acceptable

>  <fragmenstein_mode>  (575) 
expansion

>  <fragmenstein_error>  (575) 


$$$$
C3563-P122
     RDKit          3D

 32 33  0  0  0  0  0  0  0  0999 V2000
   11.4406   -0.5579   14.1977 N   0  0  0  0  0  0  0  0  0  0  0  0
   12.0291   -1.4143   15.0544 C   0  0  0  0  0  0  0  0  0  0  0  0
   11.5206   -2.6793   15.1909 N   0  0  0  0  0  0  0  0  0  0  0  0
   12.1335   -3.4081   16.1300 N   0  0  0  0  0  0  0  0  0  0  0  0
   13.1221   -2.6111   16.5392 C   0  0  0  0  0  0  0  0  0  0  0  0
   13.1100   -1.3361   15.9123 C   0  0  0  0  0  0  0  0  0  0  0  0
   14.0427   -0.2603   16.2049 C   0  0  0  0  0  0  0  0  0  0  0  0
   14.9128   -0.3795   17.0654 O   0  0  0  0  0  0  0  0  0  0  0  0
   13.8832    0.9384   15.5316 N   0  0  0  0  0  0  0  0  0  0  0  0
   12.9857    1.9521   16.0539 C   0  0  0  0  0  0  0  0  0  0  0  0
   12.4849    2.9057   14.9774 C   0  0  0  0  0  0  0  0  0  0  0  0
   13.6142    3.5182   14.1274 C   0  0  0  0  0  0  0  0  0  0  0  0
   13.8983    4.9789   14.5051 C   0  0  0  0  0  0  0  0  0  0  0  0
   14.3693    5.1023   15.8380 O   0  0  0  0  0  0  0  0  0  0  0  0
   14.9059    2.6790   14.1526 C   0  0  0  0  0  0  0  0  0  0  0  0
   14.6103    1.1913   14.3012 C   0  0  0  0  0  0  0  0  0  0  0  0
   11.9579    0.2312   13.8310 H   0  0  0  0  0  0  0  0  0  0  0  0
   10.7037   -0.8852   13.5524 H   0  0  0  0  0  0  0  0  0  0  0  0
   10.7445   -3.0857   14.6811 H   0  0  0  0  0  0  0  0  0  0  0  0
   13.8100   -2.9739   17.2941 H   0  0  0  0  0  0  0  0  0  0  0  0
   13.5393    2.5041   16.8223 H   0  0  0  0  0  0  0  0  0  0  0  0
   12.1436    1.4670   16.5530 H   0  0  0  0  0  0  0  0  0  0  0  0
   11.8581    3.6837   15.4279 H   0  0  0  0  0  0  0  0  0  0  0  0
   11.8221    2.3494   14.3034 H   0  0  0  0  0  0  0  0  0  0  0  0
   13.2528    3.5346   13.0896 H   0  0  0  0  0  0  0  0  0  0  0  0
   12.9993    5.5949   14.3955 H   0  0  0  0  0  0  0  0  0  0  0  0
   14.6636    5.3961   13.8419 H   0  0  0  0  0  0  0  0  0  0  0  0
   13.6306    4.9255   16.4444 H   0  0  0  0  0  0  0  0  0  0  0  0
   15.4768    2.8568   13.2337 H   0  0  0  0  0  0  0  0  0  0  0  0
   15.5493    2.9905   14.9851 H   0  0  0  0  0  0  0  0  0  0  0  0
   14.0028    0.8370   13.4618 H   0  0  0  0  0  0  0  0  0  0  0  0
   15.5364    0.6054   14.3039 H   0  0  0  0  0  0  0  0  0  0  0  0
  1  2  1  0
  2  3  1  0
  3  4  1  0
  4  5  2  0
  5  6  1  0
  6  7  1  0
  7  8  2  0
  7  9  1  0
  9 10  1  0
 10 11  1  0
 11 12  1  0
 12 13  1  0
 13 14  1  0
 12 15  1  0
 15 16  1  0
  6  2  2  0
 16  9  1  0
  1 17  1  0
  1 18  1  0
  3 19  1  0
  5 20  1  0
 10 21  1  0
 10 22  1  0
 11 23  1  0
 11 24  1  0
 12 25  1  0
 13 26  1  0
 13 27  1  0
 14 28  1  0
 15 29  1  0
 15 30  1  0
 16 31  1  0
 16 32  1  0
M  END
>  <Energy>  (576) 
47.184425022379095

>  <compound_id>  (576) 
3563

>  <target_id>  (576) 
1

>  <reference_id>  (576) 
122

>  <inspiration_ids>  (576) 
[122, 26]

>  <energy_score>  (576) 
-19.189721412903992

>  <distance_score>  (576) 
1.752591702179846

>  <path>  (576) 
/opt/xchem-fragalysis-2/maxwin/BulkDock/SCRATCH/505734/C3563-P122/C3563-P122.minimised.mol

>  <scratch_subdir>  (576) 
/opt/xchem-fragalysis-2/maxwin/BulkDock/SCRATCH/505734/C3563-P122

>  <fragmenstein_runtime>  (576) 
1.3108406066894531

>  <fragmenstein_outcome>  (576) 
too moved

>  <fragmenstein_mode>  (576) 
expansion

>  <fragmenstein_error>  (576) 


$$$$
C3563-P26
     RDKit          3D

 32 33  0  0  0  0  0  0  0  0999 V2000
   11.4158   -0.6203   14.2014 N   0  0  0  0  0  0  0  0  0  0  0  0
   12.0226   -1.4586   15.0624 C   0  0  0  0  0  0  0  0  0  0  0  0
   11.5165   -2.7198   15.2395 N   0  0  0  0  0  0  0  0  0  0  0  0
   12.1532   -3.4324   16.1780 N   0  0  0  0  0  0  0  0  0  0  0  0
   13.1478   -2.6247   16.5490 C   0  0  0  0  0  0  0  0  0  0  0  0
   13.1245   -1.3651   15.8921 C   0  0  0  0  0  0  0  0  0  0  0  0
   14.0759   -0.2944   16.1401 C   0  0  0  0  0  0  0  0  0  0  0  0
   14.9842   -0.4229   16.9588 O   0  0  0  0  0  0  0  0  0  0  0  0
   13.8959    0.9053   15.4762 N   0  0  0  0  0  0  0  0  0  0  0  0
   13.0329    1.9244   16.0427 C   0  0  0  0  0  0  0  0  0  0  0  0
   12.4687    2.8684   14.9896 C   0  0  0  0  0  0  0  0  0  0  0  0
   13.5471    3.4742   14.0710 C   0  0  0  0  0  0  0  0  0  0  0  0
   13.8408    4.9422   14.4093 C   0  0  0  0  0  0  0  0  0  0  0  0
   14.3787    5.0874   15.7141 O   0  0  0  0  0  0  0  0  0  0  0  0
   14.8449    2.6442   14.0421 C   0  0  0  0  0  0  0  0  0  0  0  0
   14.5653    1.1557   14.2128 C   0  0  0  0  0  0  0  0  0  0  0  0
   11.8992    0.1943   13.8437 H   0  0  0  0  0  0  0  0  0  0  0  0
   10.6559   -0.9391   13.5792 H   0  0  0  0  0  0  0  0  0  0  0  0
   10.7280   -3.1365   14.7583 H   0  0  0  0  0  0  0  0  0  0  0  0
   13.8530   -2.9667   17.2972 H   0  0  0  0  0  0  0  0  0  0  0  0
   13.6333    2.4836   16.7697 H   0  0  0  0  0  0  0  0  0  0  0  0
   12.2240    1.4447   16.5987 H   0  0  0  0  0  0  0  0  0  0  0  0
   11.8687    3.6501   15.4700 H   0  0  0  0  0  0  0  0  0  0  0  0
   11.7682    2.3060   14.3601 H   0  0  0  0  0  0  0  0  0  0  0  0
   13.1316    3.4705   13.0534 H   0  0  0  0  0  0  0  0  0  0  0  0
   12.9341    5.5527   14.3359 H   0  0  0  0  0  0  0  0  0  0  0  0
   14.5697    5.3516   13.7018 H   0  0  0  0  0  0  0  0  0  0  0  0
   13.6642    4.9531   16.3594 H   0  0  0  0  0  0  0  0  0  0  0  0
   15.3712    2.8195   13.0964 H   0  0  0  0  0  0  0  0  0  0  0  0
   15.5240    2.9652   14.8421 H   0  0  0  0  0  0  0  0  0  0  0  0
   13.9242    0.7922   13.4032 H   0  0  0  0  0  0  0  0  0  0  0  0
   15.4944    0.5757   14.1780 H   0  0  0  0  0  0  0  0  0  0  0  0
  1  2  1  0
  2  3  1  0
  3  4  1  0
  4  5  2  0
  5  6  1  0
  6  7  1  0
  7  8  2  0
  7  9  1  0
  9 10  1  0
 10 11  1  0
 11 12  1  0
 12 13  1  0
 13 14  1  0
 12 15  1  0
 15 16  1  0
  6  2  2  0
 16  9  1  0
  1 17  1  0
  1 18  1  0
  3 19  1  0
  5 20  1  0
 10 21  1  0
 10 22  1  0
 11 23  1  0
 11 24  1  0
 12 25  1  0
 13 26  1  0
 13 27  1  0
 14 28  1  0
 15 29  1  0
 15 30  1  0
 16 31  1  0
 16 32  1  0
M  END
>  <Energy>  (577) 
46.997562099133013

>  <compound_id>  (577) 
3563

>  <target_id>  (577) 
1

>  <reference_id>  (577) 
26

>  <inspiration_ids>  (577) 
[122, 26]

>  <energy_score>  (577) 
-19.37658433614925

>  <distance_score>  (577) 
1.7436803900998317

>  <path>  (577) 
/opt/xchem-fragalysis-2/maxwin/BulkDock/SCRATCH/505734/C3563-P26/C3563-P26.minimised.mol

>  <scratch_subdir>  (577) 
/opt/xchem-fragalysis-2/maxwin/BulkDock/SCRATCH/505734/C3563-P26

>  <fragmenstein_runtime>  (577) 
1.1190598011016846

>  <fragmenstein_outcome>  (577) 
too moved

>  <fragmenstein_mode>  (577) 
expansion

>  <fragmenstein_error>  (577) 


$$$$
C3571-P122
     RDKit          3D

 42 44  0  0  0  0  0  0  0  0999 V2000
   15.1407    0.7747   13.6038 C   0  0  0  0  0  0  0  0  0  0  0  0
   15.5782   -0.5967   14.1367 C   0  0  0  0  0  0  0  0  0  0  0  0
   16.5790   -0.4561   15.2202 N   0  0  0  0  0  0  0  0  0  0  0  0
   16.1288   -0.3469   16.5416 C   0  0  0  0  0  0  0  0  0  0  0  0
   15.7053    0.8715   17.0752 C   0  0  0  0  0  0  0  0  0  0  0  0
   15.2421    0.9504   18.3902 C   0  0  0  0  0  0  0  0  0  0  0  0
   15.1942   -0.1916   19.1858 C   0  0  0  0  0  0  0  0  0  0  0  0
   15.6042   -1.4145   18.6642 C   0  0  0  0  0  0  0  0  0  0  0  0
   16.0653   -1.4888   17.3477 C   0  0  0  0  0  0  0  0  0  0  0  0
   14.5274   -1.4532   14.5680 O   0  0  0  0  0  0  0  0  0  0  0  0
   13.3749   -0.9873   15.0780 C   0  0  0  0  0  0  0  0  0  0  0  0
   12.9473    0.1561   15.0732 O   0  0  0  0  0  0  0  0  0  0  0  0
   12.6406   -2.1031   15.5767 C   0  0  0  0  0  0  0  0  0  0  0  0
   13.0961   -3.1575   16.3860 C   0  0  0  0  0  0  0  0  0  0  0  0
   12.1763   -4.1062   16.5153 N   0  0  0  0  0  0  0  0  0  0  0  0
   11.2045   -3.7106   15.6879 N   0  0  0  0  0  0  0  0  0  0  0  0
   11.3528   -2.4382   15.2455 C   0  0  0  0  0  0  0  0  0  0  0  0
   16.2986   -1.4219   12.9983 C   0  0  0  0  0  0  0  0  0  0  0  0
   15.4491   -1.7125   11.7606 C   0  0  0  0  0  0  0  0  0  0  0  0
   16.4635   -1.9833   10.6545 C   0  0  0  0  0  0  0  0  0  0  0  0
   17.8209   -1.6465   11.2537 C   0  0  0  0  0  0  0  0  0  0  0  0
   17.5220   -0.8158   12.4191 N   0  0  0  0  0  0  0  0  0  0  0  0
   15.9635    1.2917   13.0979 H   0  0  0  0  0  0  0  0  0  0  0  0
   14.3040    0.6946   12.9028 H   0  0  0  0  0  0  0  0  0  0  0  0
   14.8178    1.4488   14.4017 H   0  0  0  0  0  0  0  0  0  0  0  0
   17.1625    0.3485   14.9945 H   0  0  0  0  0  0  0  0  0  0  0  0
   15.7346    1.7789   16.4795 H   0  0  0  0  0  0  0  0  0  0  0  0
   14.9145    1.9060   18.7920 H   0  0  0  0  0  0  0  0  0  0  0  0
   14.8326   -0.1308   20.2096 H   0  0  0  0  0  0  0  0  0  0  0  0
   15.5655   -2.3100   19.2792 H   0  0  0  0  0  0  0  0  0  0  0  0
   16.3969   -2.4442   16.9477 H   0  0  0  0  0  0  0  0  0  0  0  0
   14.0545   -3.2998   16.8618 H   0  0  0  0  0  0  0  0  0  0  0  0
   10.4471   -4.3683   15.5118 H   0  0  0  0  0  0  0  0  0  0  0  0
   10.6109   -1.9454   14.6406 H   0  0  0  0  0  0  0  0  0  0  0  0
   16.5843   -2.3938   13.4323 H   0  0  0  0  0  0  0  0  0  0  0  0
   14.7864   -2.5700   11.9147 H   0  0  0  0  0  0  0  0  0  0  0  0
   14.8251   -0.8632   11.4666 H   0  0  0  0  0  0  0  0  0  0  0  0
   16.2472   -1.3503    9.7864 H   0  0  0  0  0  0  0  0  0  0  0  0
   16.4269   -3.0270   10.3255 H   0  0  0  0  0  0  0  0  0  0  0  0
   18.4640   -1.1209   10.5419 H   0  0  0  0  0  0  0  0  0  0  0  0
   18.3352   -2.5635   11.5650 H   0  0  0  0  0  0  0  0  0  0  0  0
   18.2730   -0.8866   13.1074 H   0  0  0  0  0  0  0  0  0  0  0  0
  1  2  1  0
  2  3  1  0
  3  4  1  0
  4  5  2  0
  5  6  1  0
  6  7  2  0
  7  8  1  0
  8  9  2  0
  2 10  1  0
 10 11  1  0
 11 12  2  0
 11 13  1  0
 13 14  1  0
 14 15  2  0
 15 16  1  0
 16 17  1  0
  2 18  1  0
 18 19  1  0
 19 20  1  0
 20 21  1  0
 21 22  1  0
  9  4  1  0
 17 13  2  0
 22 18  1  0
  1 23  1  0
  1 24  1  0
  1 25  1  0
  3 26  1  0
  5 27  1  0
  6 28  1  0
  7 29  1  0
  8 30  1  0
  9 31  1  0
 14 32  1  0
 16 33  1  0
 17 34  1  0
 18 35  1  0
 19 36  1  0
 19 37  1  0
 20 38  1  0
 20 39  1  0
 21 40  1  0
 21 41  1  0
 22 42  1  0
M  END
>  <Energy>  (578) 
58.021886432510072

>  <compound_id>  (578) 
3571

>  <target_id>  (578) 
1

>  <reference_id>  (578) 
122

>  <inspiration_ids>  (578) 
[122, 61]

>  <energy_score>  (578) 
-38.905307554243734

>  <distance_score>  (578) 
1.32432160499848

>  <path>  (578) 
/opt/xchem-fragalysis-2/maxwin/BulkDock/SCRATCH/505734/C3571-P122/C3571-P122.minimised.mol

>  <scratch_subdir>  (578) 
/opt/xchem-fragalysis-2/maxwin/BulkDock/SCRATCH/505734/C3571-P122

>  <fragmenstein_runtime>  (578) 
6.55876898765564

>  <fragmenstein_outcome>  (578) 
too moved

>  <fragmenstein_mode>  (578) 
expansion

>  <fragmenstein_error>  (578) 


$$$$
C3571-P61
     RDKit          3D

 42 44  0  0  0  0  0  0  0  0999 V2000
   14.3668    0.3172   13.3303 C   0  0  0  0  0  0  0  0  0  0  0  0
   15.3684   -0.1918   14.3888 C   0  0  0  0  0  0  0  0  0  0  0  0
   14.8066    0.1696   15.6942 N   0  0  0  0  0  0  0  0  0  0  0  0
   15.3130   -0.0690   16.9576 C   0  0  0  0  0  0  0  0  0  0  0  0
   16.5101   -0.7129   17.2409 C   0  0  0  0  0  0  0  0  0  0  0  0
   16.9262   -0.9293   18.5579 C   0  0  0  0  0  0  0  0  0  0  0  0
   16.1209   -0.5615   19.6252 C   0  0  0  0  0  0  0  0  0  0  0  0
   14.8931    0.0206   19.3693 C   0  0  0  0  0  0  0  0  0  0  0  0
   14.5027    0.2639   18.0503 C   0  0  0  0  0  0  0  0  0  0  0  0
   15.5328   -1.6159   14.2096 O   0  0  0  0  0  0  0  0  0  0  0  0
   14.9464   -2.4722   15.0979 C   0  0  0  0  0  0  0  0  0  0  0  0
   15.6217   -3.2866   15.7195 O   0  0  0  0  0  0  0  0  0  0  0  0
   13.4951   -2.4384   15.1834 C   0  0  0  0  0  0  0  0  0  0  0  0
   12.6842   -2.7480   16.2935 C   0  0  0  0  0  0  0  0  0  0  0  0
   11.3778   -2.6330   16.0226 N   0  0  0  0  0  0  0  0  0  0  0  0
   11.3451   -2.3380   14.7140 N   0  0  0  0  0  0  0  0  0  0  0  0
   12.5851   -2.2006   14.1729 C   0  0  0  0  0  0  0  0  0  0  0  0
   16.7654    0.4983   14.1544 C   0  0  0  0  0  0  0  0  0  0  0  0
   17.3368    0.3749   12.7421 C   0  0  0  0  0  0  0  0  0  0  0  0
   18.3909    1.4755   12.6746 C   0  0  0  0  0  0  0  0  0  0  0  0
   18.1044    2.3896   13.8594 C   0  0  0  0  0  0  0  0  0  0  0  0
   16.8025    1.9640   14.3711 N   0  0  0  0  0  0  0  0  0  0  0  0
   14.4782    1.3911   13.1435 H   0  0  0  0  0  0  0  0  0  0  0  0
   14.4775   -0.2167   12.3804 H   0  0  0  0  0  0  0  0  0  0  0  0
   13.3285    0.1947   13.6504 H   0  0  0  0  0  0  0  0  0  0  0  0
   14.3452    1.0772   15.6574 H   0  0  0  0  0  0  0  0  0  0  0  0
   17.1556   -1.0985   16.4610 H   0  0  0  0  0  0  0  0  0  0  0  0
   17.8731   -1.4306   18.7440 H   0  0  0  0  0  0  0  0  0  0  0  0
   16.4362   -0.7556   20.6462 H   0  0  0  0  0  0  0  0  0  0  0  0
   14.2392    0.2921   20.1935 H   0  0  0  0  0  0  0  0  0  0  0  0
   13.5342    0.7266   17.8760 H   0  0  0  0  0  0  0  0  0  0  0  0
   12.9988   -3.0410   17.2886 H   0  0  0  0  0  0  0  0  0  0  0  0
   10.4473   -2.2369   14.2389 H   0  0  0  0  0  0  0  0  0  0  0  0
   12.7102   -1.9966   13.1213 H   0  0  0  0  0  0  0  0  0  0  0  0
   17.5062    0.0415   14.8184 H   0  0  0  0  0  0  0  0  0  0  0  0
   17.7718   -0.6127   12.5582 H   0  0  0  0  0  0  0  0  0  0  0  0
   16.5867    0.5598   11.9664 H   0  0  0  0  0  0  0  0  0  0  0  0
   18.3204    2.0139   11.7234 H   0  0  0  0  0  0  0  0  0  0  0  0
   19.3996    1.0547   12.7498 H   0  0  0  0  0  0  0  0  0  0  0  0
   18.0886    3.4436   13.5673 H   0  0  0  0  0  0  0  0  0  0  0  0
   18.8743    2.2618   14.6293 H   0  0  0  0  0  0  0  0  0  0  0  0
   16.7316    2.1518   15.3733 H   0  0  0  0  0  0  0  0  0  0  0  0
  1  2  1  0
  2  3  1  0
  3  4  1  0
  4  5  2  0
  5  6  1  0
  6  7  2  0
  7  8  1  0
  8  9  2  0
  2 10  1  0
 10 11  1  0
 11 12  2  0
 11 13  1  0
 13 14  1  0
 14 15  2  0
 15 16  1  0
 16 17  1  0
  2 18  1  0
 18 19  1  0
 19 20  1  0
 20 21  1  0
 21 22  1  0
  9  4  1  0
 17 13  2  0
 22 18  1  0
  1 23  1  0
  1 24  1  0
  1 25  1  0
  3 26  1  0
  5 27  1  0
  6 28  1  0
  7 29  1  0
  8 30  1  0
  9 31  1  0
 14 32  1  0
 16 33  1  0
 17 34  1  0
 18 35  1  0
 19 36  1  0
 19 37  1  0
 20 38  1  0
 20 39  1  0
 21 40  1  0
 21 41  1  0
 22 42  1  0
M  END
>  <Energy>  (579) 
63.386949228785099

>  <compound_id>  (579) 
3571

>  <target_id>  (579) 
1

>  <reference_id>  (579) 
61

>  <inspiration_ids>  (579) 
[122, 61]

>  <energy_score>  (579) 
-33.54024475796797

>  <distance_score>  (579) 
1.8103866163429783

>  <path>  (579) 
/opt/xchem-fragalysis-2/maxwin/BulkDock/SCRATCH/505734/C3571-P61/C3571-P61.minimised.mol

>  <scratch_subdir>  (579) 
/opt/xchem-fragalysis-2/maxwin/BulkDock/SCRATCH/505734/C3571-P61

>  <fragmenstein_runtime>  (579) 
6.305505275726318

>  <fragmenstein_outcome>  (579) 
too moved

>  <fragmenstein_mode>  (579) 
expansion

>  <fragmenstein_error>  (579) 


$$$$
C3576-P122
     RDKit          3D

 36 37  0  0  0  0  0  0  0  0999 V2000
   15.2042   -2.3124   11.6435 C   0  0  0  0  0  0  0  0  0  0  0  0
   14.1126   -1.8491   12.4328 O   0  0  0  0  0  0  0  0  0  0  0  0
   14.2393   -0.5138   12.6582 C   0  0  0  0  0  0  0  0  0  0  0  0
   14.3006    0.0782   13.8590 C   0  0  0  0  0  0  0  0  0  0  0  0
   14.7681    1.5438   13.8950 C   0  0  0  0  0  0  0  0  0  0  0  0
   13.8857    2.5988   14.5953 C   0  0  0  0  0  0  0  0  0  0  0  0
   12.4750    2.1100   14.7346 C   0  0  0  0  0  0  0  0  0  0  0  0
   11.6147    2.0656   13.6379 C   0  0  0  0  0  0  0  0  0  0  0  0
   10.4785    1.2609   13.6990 C   0  0  0  0  0  0  0  0  0  0  0  0
   10.1942    0.4992   14.8239 C   0  0  0  0  0  0  0  0  0  0  0  0
    9.0683   -0.3728   14.9649 C   0  0  0  0  0  0  0  0  0  0  0  0
    8.1373   -1.0298   15.1957 N   0  0  0  0  0  0  0  0  0  0  0  0
   11.0622    0.5645   15.8875 C   0  0  0  0  0  0  0  0  0  0  0  0
   12.1476    1.4230   15.8992 C   0  0  0  0  0  0  0  0  0  0  0  0
   14.2459   -0.6238   15.1827 C   0  0  0  0  0  0  0  0  0  0  0  0
   14.9678   -0.2106   16.0917 O   0  0  0  0  0  0  0  0  0  0  0  0
   13.3429   -1.7391   15.3958 C   0  0  0  0  0  0  0  0  0  0  0  0
   12.2509   -2.2287   14.6545 C   0  0  0  0  0  0  0  0  0  0  0  0
   11.6139   -3.2274   15.2644 N   0  0  0  0  0  0  0  0  0  0  0  0
   12.3495   -3.4571   16.3601 N   0  0  0  0  0  0  0  0  0  0  0  0
   13.3658   -2.5646   16.5090 C   0  0  0  0  0  0  0  0  0  0  0  0
   14.9416   -3.2966   11.2618 H   0  0  0  0  0  0  0  0  0  0  0  0
   15.3942   -1.6653   10.7798 H   0  0  0  0  0  0  0  0  0  0  0  0
   16.1067   -2.3931   12.2575 H   0  0  0  0  0  0  0  0  0  0  0  0
   14.3573    0.0437   11.7347 H   0  0  0  0  0  0  0  0  0  0  0  0
   14.9147    1.8965   12.8636 H   0  0  0  0  0  0  0  0  0  0  0  0
   15.7736    1.5844   14.3359 H   0  0  0  0  0  0  0  0  0  0  0  0
   14.3043    2.8322   15.5827 H   0  0  0  0  0  0  0  0  0  0  0  0
   13.9055    3.5417   14.0351 H   0  0  0  0  0  0  0  0  0  0  0  0
   11.8705    2.5795   12.7147 H   0  0  0  0  0  0  0  0  0  0  0  0
    9.8495    1.1837   12.8368 H   0  0  0  0  0  0  0  0  0  0  0  0
   10.9441   -0.1766   16.6593 H   0  0  0  0  0  0  0  0  0  0  0  0
   12.8301    1.4138   16.7491 H   0  0  0  0  0  0  0  0  0  0  0  0
   11.8631   -1.8815   13.7066 H   0  0  0  0  0  0  0  0  0  0  0  0
   12.0804   -4.2227   16.9726 H   0  0  0  0  0  0  0  0  0  0  0  0
   14.0186   -2.5867   17.3711 H   0  0  0  0  0  0  0  0  0  0  0  0
  1  2  1  0
  2  3  1  0
  3  4  2  3
  4  5  1  0
  5  6  1  0
  6  7  1  0
  7  8  2  0
  8  9  1  0
  9 10  2  0
 10 11  1  0
 11 12  3  0
 10 13  1  0
 13 14  2  0
  4 15  1  0
 15 16  2  0
 15 17  1  0
 17 18  1  0
 18 19  2  0
 19 20  1  0
 20 21  1  0
 14  7  1  0
 21 17  2  0
  1 22  1  0
  1 23  1  0
  1 24  1  0
  3 25  1  0
  5 26  1  0
  5 27  1  0
  6 28  1  0
  6 29  1  0
  8 30  1  0
  9 31  1  0
 13 32  1  0
 14 33  1  0
 18 34  1  0
 20 35  1  0
 21 36  1  0
M  END
>  <Energy>  (580) 
92.976458247231449

>  <compound_id>  (580) 
3576

>  <target_id>  (580) 
1

>  <reference_id>  (580) 
122

>  <inspiration_ids>  (580) 
[122, 81]

>  <energy_score>  (580) 
-27.14610445190192

>  <distance_score>  (580) 
2.87850352746426

>  <path>  (580) 
/opt/xchem-fragalysis-2/maxwin/BulkDock/SCRATCH/505734/C3576-P122/C3576-P122.minimised.mol

>  <scratch_subdir>  (580) 
/opt/xchem-fragalysis-2/maxwin/BulkDock/SCRATCH/505734/C3576-P122

>  <fragmenstein_runtime>  (580) 
4.050247430801392

>  <fragmenstein_outcome>  (580) 
too moved

>  <fragmenstein_mode>  (580) 
expansion

>  <fragmenstein_error>  (580) 


$$$$
C3576-P81
     RDKit          3D

 36 37  0  0  0  0  0  0  0  0999 V2000
   14.7019    0.4352   18.1234 C   0  0  0  0  0  0  0  0  0  0  0  0
   13.8201    0.1792   17.0305 O   0  0  0  0  0  0  0  0  0  0  0  0
   14.3114    0.6329   15.8392 C   0  0  0  0  0  0  0  0  0  0  0  0
   13.9151    0.2142   14.6211 C   0  0  0  0  0  0  0  0  0  0  0  0
   14.3878    1.0056   13.3943 C   0  0  0  0  0  0  0  0  0  0  0  0
   13.8834    2.4835   13.3051 C   0  0  0  0  0  0  0  0  0  0  0  0
   12.4455    2.5850   13.7744 C   0  0  0  0  0  0  0  0  0  0  0  0
   11.4858    1.8501   13.0781 C   0  0  0  0  0  0  0  0  0  0  0  0
   10.4514    1.2810   13.8046 C   0  0  0  0  0  0  0  0  0  0  0  0
   10.3006    1.5553   15.1669 C   0  0  0  0  0  0  0  0  0  0  0  0
    9.4635    0.6892   15.9352 C   0  0  0  0  0  0  0  0  0  0  0  0
    8.8795   -0.1241   16.5222 N   0  0  0  0  0  0  0  0  0  0  0  0
   11.0936    2.5239   15.7775 C   0  0  0  0  0  0  0  0  0  0  0  0
   12.1778    3.0454   15.0746 C   0  0  0  0  0  0  0  0  0  0  0  0
   12.9440   -0.8981   14.3601 C   0  0  0  0  0  0  0  0  0  0  0  0
   12.3040   -0.9274   13.3139 O   0  0  0  0  0  0  0  0  0  0  0  0
   12.8672   -1.9891   15.2983 C   0  0  0  0  0  0  0  0  0  0  0  0
   13.8525   -2.5574   16.1236 C   0  0  0  0  0  0  0  0  0  0  0  0
   13.4222   -3.6344   16.7738 N   0  0  0  0  0  0  0  0  0  0  0  0
   12.1663   -3.7912   16.3450 N   0  0  0  0  0  0  0  0  0  0  0  0
   11.7837   -2.8275   15.4646 C   0  0  0  0  0  0  0  0  0  0  0  0
   14.2820   -0.0325   19.0180 H   0  0  0  0  0  0  0  0  0  0  0  0
   15.6894   -0.0008   17.9378 H   0  0  0  0  0  0  0  0  0  0  0  0
   14.7865    1.5118   18.3048 H   0  0  0  0  0  0  0  0  0  0  0  0
   14.9975    1.4655   15.9525 H   0  0  0  0  0  0  0  0  0  0  0  0
   14.0899    0.4840   12.4757 H   0  0  0  0  0  0  0  0  0  0  0  0
   15.4856    1.0085   13.3677 H   0  0  0  0  0  0  0  0  0  0  0  0
   14.5258    3.1307   13.9148 H   0  0  0  0  0  0  0  0  0  0  0  0
   13.9657    2.8430   12.2725 H   0  0  0  0  0  0  0  0  0  0  0  0
   11.6899    1.4797   12.0743 H   0  0  0  0  0  0  0  0  0  0  0  0
    9.8676    0.4822   13.3498 H   0  0  0  0  0  0  0  0  0  0  0  0
   10.9762    2.7631   16.8326 H   0  0  0  0  0  0  0  0  0  0  0  0
   12.9069    3.6507   15.6106 H   0  0  0  0  0  0  0  0  0  0  0  0
   14.8798   -2.2505   16.2672 H   0  0  0  0  0  0  0  0  0  0  0  0
   11.6374   -4.5934   16.6746 H   0  0  0  0  0  0  0  0  0  0  0  0
   10.8085   -2.8394   14.9972 H   0  0  0  0  0  0  0  0  0  0  0  0
  1  2  1  0
  2  3  1  0
  3  4  2  3
  4  5  1  0
  5  6  1  0
  6  7  1  0
  7  8  2  0
  8  9  1  0
  9 10  2  0
 10 11  1  0
 11 12  3  0
 10 13  1  0
 13 14  2  0
  4 15  1  0
 15 16  2  0
 15 17  1  0
 17 18  1  0
 18 19  2  0
 19 20  1  0
 20 21  1  0
 14  7  1  0
 21 17  2  0
  1 22  1  0
  1 23  1  0
  1 24  1  0
  3 25  1  0
  5 26  1  0
  5 27  1  0
  6 28  1  0
  6 29  1  0
  8 30  1  0
  9 31  1  0
 13 32  1  0
 14 33  1  0
 18 34  1  0
 20 35  1  0
 21 36  1  0
M  END
>  <Energy>  (581) 
97.419275250194687

>  <compound_id>  (581) 
3576

>  <target_id>  (581) 
1

>  <reference_id>  (581) 
81

>  <inspiration_ids>  (581) 
[122, 81]

>  <energy_score>  (581) 
-22.703287448939818

>  <distance_score>  (581) 
2.509214868435978

>  <path>  (581) 
/opt/xchem-fragalysis-2/maxwin/BulkDock/SCRATCH/505734/C3576-P81/C3576-P81.minimised.mol

>  <scratch_subdir>  (581) 
/opt/xchem-fragalysis-2/maxwin/BulkDock/SCRATCH/505734/C3576-P81

>  <fragmenstein_runtime>  (581) 
3.7639873027801514

>  <fragmenstein_outcome>  (581) 
too moved

>  <fragmenstein_mode>  (581) 
expansion

>  <fragmenstein_error>  (581) 


$$$$
C3577-P122
     RDKit          3D

 42 44  0  0  0  0  0  0  0  0999 V2000
   18.7945   -4.5103    9.7638 N   0  0  0  0  0  0  0  0  0  0  0  0
   18.9854   -3.0703    9.6714 C   0  0  0  0  0  0  0  0  0  0  0  0
   17.9731   -2.3200   10.4752 C   0  0  0  0  0  0  0  0  0  0  0  0
   17.0488   -1.4770    9.8654 C   0  0  0  0  0  0  0  0  0  0  0  0
   16.0234   -0.9121   10.6127 C   0  0  0  0  0  0  0  0  0  0  0  0
   15.9635   -1.1788   11.9899 C   0  0  0  0  0  0  0  0  0  0  0  0
   15.0575   -0.7984   12.9932 C   0  0  0  0  0  0  0  0  0  0  0  0
   15.5235   -1.2856   14.1817 C   0  0  0  0  0  0  0  0  0  0  0  0
   16.6696   -1.9873   13.9491 N   0  0  0  0  0  0  0  0  0  0  0  0
   17.3072   -2.8500   14.9315 C   0  0  0  0  0  0  0  0  0  0  0  0
   18.2441   -2.1061   15.7602 N   0  0  0  0  0  0  0  0  0  0  0  0
   17.6701   -1.1853   16.7526 C   0  0  0  0  0  0  0  0  0  0  0  0
   16.8154   -1.8106   17.8742 C   0  0  0  0  0  0  0  0  0  0  0  0
   15.4288   -1.8046   17.4932 O   0  0  0  0  0  0  0  0  0  0  0  0
   14.7797   -3.0001   17.4797 C   0  0  0  0  0  0  0  0  0  0  0  0
   15.2515   -4.0559   17.8839 O   0  0  0  0  0  0  0  0  0  0  0  0
   13.4837   -2.9078   16.8410 C   0  0  0  0  0  0  0  0  0  0  0  0
   12.7585   -1.7936   16.3593 C   0  0  0  0  0  0  0  0  0  0  0  0
   11.5917   -2.1310   15.8030 N   0  0  0  0  0  0  0  0  0  0  0  0
   11.6061   -3.4723   15.8407 N   0  0  0  0  0  0  0  0  0  0  0  0
   12.6778   -3.9727   16.5133 C   0  0  0  0  0  0  0  0  0  0  0  0
   16.9583   -1.9245   12.6063 C   0  0  0  0  0  0  0  0  0  0  0  0
   17.9810   -2.4937   11.8656 C   0  0  0  0  0  0  0  0  0  0  0  0
   18.6450   -4.7804   10.7283 H   0  0  0  0  0  0  0  0  0  0  0  0
   17.9522   -4.7855    9.2447 H   0  0  0  0  0  0  0  0  0  0  0  0
   18.9494   -2.7743    8.6168 H   0  0  0  0  0  0  0  0  0  0  0  0
   19.9902   -2.8133   10.0270 H   0  0  0  0  0  0  0  0  0  0  0  0
   17.1031   -1.2675    8.8025 H   0  0  0  0  0  0  0  0  0  0  0  0
   15.2756   -0.2851   10.1395 H   0  0  0  0  0  0  0  0  0  0  0  0
   14.1612   -0.2056   12.8671 H   0  0  0  0  0  0  0  0  0  0  0  0
   15.1233   -1.1757   15.1705 H   0  0  0  0  0  0  0  0  0  0  0  0
   17.8478   -3.6314   14.3880 H   0  0  0  0  0  0  0  0  0  0  0  0
   16.5313   -3.3611   15.5049 H   0  0  0  0  0  0  0  0  0  0  0  0
   18.8326   -2.7819   16.2460 H   0  0  0  0  0  0  0  0  0  0  0  0
   18.5328   -0.7099   17.2356 H   0  0  0  0  0  0  0  0  0  0  0  0
   17.1267   -0.3752   16.2560 H   0  0  0  0  0  0  0  0  0  0  0  0
   16.8890   -1.1800   18.7672 H   0  0  0  0  0  0  0  0  0  0  0  0
   17.1911   -2.8028   18.1473 H   0  0  0  0  0  0  0  0  0  0  0  0
   13.0311   -0.7465   16.4021 H   0  0  0  0  0  0  0  0  0  0  0  0
   10.8348   -3.9878   15.4196 H   0  0  0  0  0  0  0  0  0  0  0  0
   12.7980   -5.0354   16.6502 H   0  0  0  0  0  0  0  0  0  0  0  0
   18.7499   -3.0945   12.3414 H   0  0  0  0  0  0  0  0  0  0  0  0
  1  2  1  0
  2  3  1  0
  3  4  2  0
  4  5  1  0
  5  6  2  0
  6  7  1  0
  7  8  2  0
  8  9  1  0
  9 10  1  0
 10 11  1  0
 11 12  1  0
 12 13  1  0
 13 14  1  0
 14 15  1  0
 15 16  2  0
 15 17  1  0
 17 18  1  0
 18 19  2  0
 19 20  1  0
 20 21  1  0
  9 22  1  0
 22 23  2  0
 23  3  1  0
 22  6  1  0
 21 17  2  0
  1 24  1  0
  1 25  1  0
  2 26  1  0
  2 27  1  0
  4 28  1  0
  5 29  1  0
  7 30  1  0
  8 31  1  0
 10 32  1  0
 10 33  1  0
 11 34  1  0
 12 35  1  0
 12 36  1  0
 13 37  1  0
 13 38  1  0
 18 39  1  0
 20 40  1  0
 21 41  1  0
 23 42  1  0
M  END
>  <Energy>  (582) 
55.655271554684518

>  <compound_id>  (582) 
3577

>  <target_id>  (582) 
1

>  <reference_id>  (582) 
122

>  <inspiration_ids>  (582) 
[122, 83]

>  <energy_score>  (582) 
-21.565670237059038

>  <distance_score>  (582) 
2.52190155711483

>  <path>  (582) 
/opt/xchem-fragalysis-2/maxwin/BulkDock/SCRATCH/505734/C3577-P122/C3577-P122.minimised.mol

>  <scratch_subdir>  (582) 
/opt/xchem-fragalysis-2/maxwin/BulkDock/SCRATCH/505734/C3577-P122

>  <fragmenstein_runtime>  (582) 
6.378217697143555

>  <fragmenstein_outcome>  (582) 
too moved

>  <fragmenstein_mode>  (582) 
expansion

>  <fragmenstein_error>  (582) 


$$$$
C3577-P83
     RDKit          3D

 42 44  0  0  0  0  0  0  0  0999 V2000
   17.9978   -4.7506   10.0542 N   0  0  0  0  0  0  0  0  0  0  0  0
   17.9977   -3.3160    9.8137 C   0  0  0  0  0  0  0  0  0  0  0  0
   17.2234   -2.5909   10.8656 C   0  0  0  0  0  0  0  0  0  0  0  0
   15.9077   -2.1811   10.6611 C   0  0  0  0  0  0  0  0  0  0  0  0
   15.1766   -1.5903   11.6829 C   0  0  0  0  0  0  0  0  0  0  0  0
   15.7953   -1.4000   12.9205 C   0  0  0  0  0  0  0  0  0  0  0  0
   15.3741   -0.7752   14.1064 C   0  0  0  0  0  0  0  0  0  0  0  0
   16.4122   -0.8155   14.9966 C   0  0  0  0  0  0  0  0  0  0  0  0
   17.4247   -1.5271   14.4227 N   0  0  0  0  0  0  0  0  0  0  0  0
   18.5973   -2.0015   15.1368 C   0  0  0  0  0  0  0  0  0  0  0  0
   18.1928   -3.2028   15.8734 N   0  0  0  0  0  0  0  0  0  0  0  0
   17.8875   -2.9206   17.2802 C   0  0  0  0  0  0  0  0  0  0  0  0
   16.8942   -3.9340   17.8727 C   0  0  0  0  0  0  0  0  0  0  0  0
   15.6620   -4.0077   17.1321 O   0  0  0  0  0  0  0  0  0  0  0  0
   14.8327   -2.9285   17.2261 C   0  0  0  0  0  0  0  0  0  0  0  0
   15.1037   -1.8936   17.8231 O   0  0  0  0  0  0  0  0  0  0  0  0
   13.5659   -3.1384   16.5635 C   0  0  0  0  0  0  0  0  0  0  0  0
   12.6838   -2.1910   16.0030 C   0  0  0  0  0  0  0  0  0  0  0  0
   11.5386   -2.7299   15.5733 N   0  0  0  0  0  0  0  0  0  0  0  0
   11.7195   -4.0462   15.7854 N   0  0  0  0  0  0  0  0  0  0  0  0
   12.9103   -4.3325   16.3768 C   0  0  0  0  0  0  0  0  0  0  0  0
   17.1078   -1.8008   13.1157 C   0  0  0  0  0  0  0  0  0  0  0  0
   17.8408   -2.4021   12.1033 C   0  0  0  0  0  0  0  0  0  0  0  0
   17.2314   -5.0076   10.6833 H   0  0  0  0  0  0  0  0  0  0  0  0
   17.7562   -5.2211    9.1731 H   0  0  0  0  0  0  0  0  0  0  0  0
   19.0337   -2.9567    9.7977 H   0  0  0  0  0  0  0  0  0  0  0  0
   17.6003   -3.0823    8.8233 H   0  0  0  0  0  0  0  0  0  0  0  0
   15.4240   -2.3142    9.7061 H   0  0  0  0  0  0  0  0  0  0  0  0
   14.1543   -1.2673   11.5265 H   0  0  0  0  0  0  0  0  0  0  0  0
   14.4181   -0.2998   14.2767 H   0  0  0  0  0  0  0  0  0  0  0  0
   16.4864   -0.4283   16.0043 H   0  0  0  0  0  0  0  0  0  0  0  0
   18.9763   -1.1931   15.7724 H   0  0  0  0  0  0  0  0  0  0  0  0
   19.3762   -2.2514   14.4122 H   0  0  0  0  0  0  0  0  0  0  0  0
   17.3801   -3.6222   15.4134 H   0  0  0  0  0  0  0  0  0  0  0  0
   18.8190   -2.9582   17.8563 H   0  0  0  0  0  0  0  0  0  0  0  0
   17.4839   -1.9133   17.4046 H   0  0  0  0  0  0  0  0  0  0  0  0
   16.6775   -3.6979   18.9213 H   0  0  0  0  0  0  0  0  0  0  0  0
   17.3331   -4.9379   17.8550 H   0  0  0  0  0  0  0  0  0  0  0  0
   12.8256   -1.1228   15.9141 H   0  0  0  0  0  0  0  0  0  0  0  0
   10.9683   -4.6945   15.5520 H   0  0  0  0  0  0  0  0  0  0  0  0
   13.1635   -5.3465   16.6419 H   0  0  0  0  0  0  0  0  0  0  0  0
   18.8550   -2.7560   12.2651 H   0  0  0  0  0  0  0  0  0  0  0  0
  1  2  1  0
  2  3  1  0
  3  4  2  0
  4  5  1  0
  5  6  2  0
  6  7  1  0
  7  8  2  0
  8  9  1  0
  9 10  1  0
 10 11  1  0
 11 12  1  0
 12 13  1  0
 13 14  1  0
 14 15  1  0
 15 16  2  0
 15 17  1  0
 17 18  1  0
 18 19  2  0
 19 20  1  0
 20 21  1  0
  9 22  1  0
 22 23  2  0
 23  3  1  0
 22  6  1  0
 21 17  2  0
  1 24  1  0
  1 25  1  0
  2 26  1  0
  2 27  1  0
  4 28  1  0
  5 29  1  0
  7 30  1  0
  8 31  1  0
 10 32  1  0
 10 33  1  0
 11 34  1  0
 12 35  1  0
 12 36  1  0
 13 37  1  0
 13 38  1  0
 18 39  1  0
 20 40  1  0
 21 41  1  0
 23 42  1  0
M  END
>  <Energy>  (583) 
50.284506516204146

>  <compound_id>  (583) 
3577

>  <target_id>  (583) 
1

>  <reference_id>  (583) 
83

>  <inspiration_ids>  (583) 
[122, 83]

>  <energy_score>  (583) 
-26.93643527553948

>  <distance_score>  (583) 
2.1664931403554712

>  <path>  (583) 
/opt/xchem-fragalysis-2/maxwin/BulkDock/SCRATCH/505734/C3577-P83/C3577-P83.minimised.mol

>  <scratch_subdir>  (583) 
/opt/xchem-fragalysis-2/maxwin/BulkDock/SCRATCH/505734/C3577-P83

>  <fragmenstein_runtime>  (583) 
5.575930595397949

>  <fragmenstein_outcome>  (583) 
too moved

>  <fragmenstein_mode>  (583) 
expansion

>  <fragmenstein_error>  (583) 


$$$$
C3579-P122
     RDKit          3D

 34 35  0  0  0  0  0  0  0  0999 V2000
   12.5207   -3.0154   16.2882 C   0  0  0  0  0  0  0  0  0  0  0  0
   12.6821   -2.1487   15.0462 C   0  0  0  0  0  0  0  0  0  0  0  0
   11.3658   -1.5009   14.6041 C   0  0  0  0  0  0  0  0  0  0  0  0
   10.7302   -0.3691   15.4150 C   0  0  0  0  0  0  0  0  0  0  0  0
   11.0909    0.9307   14.8988 N   0  0  0  0  0  0  0  0  0  0  0  0
   10.0673   -0.6746   16.3669 O   0  0  0  0  0  0  0  0  0  0  0  0
   13.8836   -1.1865   15.0280 C   0  0  0  0  0  0  0  0  0  0  0  0
   15.4769   -2.0559   14.7194 S   0  0  0  0  0  0  0  0  0  0  0  0
   16.2747   -1.3057   15.9547 N   0  0  0  0  0  0  0  0  0  0  0  0
   15.3935   -0.7816   17.0180 C   0  0  0  0  0  0  0  0  0  0  0  0
   15.1452   -1.8603   18.0808 C   0  0  0  0  0  0  0  0  0  0  0  0
   16.3882   -1.8549   18.8556 N   0  0  0  0  0  0  0  0  0  0  0  0
   16.7921   -0.4689   18.9545 N   0  0  0  0  0  0  0  0  0  0  0  0
   16.1272    0.2656   17.8629 C   0  0  0  0  0  0  0  0  0  0  0  0
   14.1224   -0.3064   16.2816 C   0  0  0  0  0  0  0  0  0  0  0  0
   14.2482    1.0855   15.8018 C   0  0  0  0  0  0  0  0  0  0  0  0
   14.2804    2.1518   15.3466 N   0  0  0  0  0  0  0  0  0  0  0  0
   11.6349   -3.6537   16.2053 H   0  0  0  0  0  0  0  0  0  0  0  0
   12.4179   -2.4151   17.1899 H   0  0  0  0  0  0  0  0  0  0  0  0
   13.3747   -3.6868   16.4114 H   0  0  0  0  0  0  0  0  0  0  0  0
   12.8515   -2.8541   14.2277 H   0  0  0  0  0  0  0  0  0  0  0  0
   10.6124   -2.2984   14.5782 H   0  0  0  0  0  0  0  0  0  0  0  0
   11.5064   -1.1657   13.5716 H   0  0  0  0  0  0  0  0  0  0  0  0
   11.5777    0.8106   13.9903 H   0  0  0  0  0  0  0  0  0  0  0  0
   11.7728    0.8105   14.1265 H   0  0  0  0  0  0  0  0  0  0  0  0
   13.7625   -0.5591   14.1348 H   0  0  0  0  0  0  0  0  0  0  0  0
   16.9951   -1.8960   16.3866 H   0  0  0  0  0  0  0  0  0  0  0  0
   14.3047   -1.5927   18.7288 H   0  0  0  0  0  0  0  0  0  0  0  0
   14.9695   -2.8591   17.6769 H   0  0  0  0  0  0  0  0  0  0  0  0
   16.2251   -2.2639   19.7825 H   0  0  0  0  0  0  0  0  0  0  0  0
   17.8090   -0.3762   18.8559 H   0  0  0  0  0  0  0  0  0  0  0  0
   16.8522    0.8501   17.2845 H   0  0  0  0  0  0  0  0  0  0  0  0
   15.4220    0.9699   18.3201 H   0  0  0  0  0  0  0  0  0  0  0  0
   13.2577   -0.3356   16.9532 H   0  0  0  0  0  0  0  0  0  0  0  0
  1  2  1  0
  2  3  1  0
  3  4  1  0
  4  5  1  0
  4  6  2  0
  2  7  1  0
  7  8  1  0
  8  9  1  0
  9 10  1  0
 10 11  1  0
 11 12  1  0
 12 13  1  0
 13 14  1  0
 10 15  1  0
 15 16  1  0
 16 17  3  0
 15  7  1  0
 14 10  1  0
  1 18  1  0
  1 19  1  0
  1 20  1  0
  2 21  1  0
  3 22  1  0
  3 23  1  0
  5 24  1  0
  5 25  1  0
  7 26  1  0
  9 27  1  0
 11 28  1  0
 11 29  1  0
 12 30  1  0
 13 31  1  0
 14 32  1  0
 14 33  1  0
 15 34  1  0
M  END
>  <Energy>  (584) 
247.23020945991075

>  <compound_id>  (584) 
3579

>  <target_id>  (584) 
1

>  <reference_id>  (584) 
122

>  <inspiration_ids>  (584) 
[122, 93]

>  <energy_score>  (584) 
140.36588960749935

>  <distance_score>  (584) 
1.9676209179723434

>  <path>  (584) 
/opt/xchem-fragalysis-2/maxwin/BulkDock/SCRATCH/505734/C3579-P122/C3579-P122.minimised.mol

>  <scratch_subdir>  (584) 
/opt/xchem-fragalysis-2/maxwin/BulkDock/SCRATCH/505734/C3579-P122

>  <fragmenstein_runtime>  (584) 
4.222535133361816

>  <fragmenstein_outcome>  (584) 
too moved

>  <fragmenstein_mode>  (584) 
expansion

>  <fragmenstein_error>  (584) 


$$$$
C3579-P93
     RDKit          3D

 34 35  0  0  0  0  0  0  0  0999 V2000
   12.3797   -2.7163   16.1624 C   0  0  0  0  0  0  0  0  0  0  0  0
   12.2244   -1.2498   15.7436 C   0  0  0  0  0  0  0  0  0  0  0  0
   10.9825   -1.0964   14.8395 C   0  0  0  0  0  0  0  0  0  0  0  0
    9.7024   -0.6149   15.5576 C   0  0  0  0  0  0  0  0  0  0  0  0
    8.5446   -0.8455   14.7505 N   0  0  0  0  0  0  0  0  0  0  0  0
    9.8042   -0.1698   16.6630 O   0  0  0  0  0  0  0  0  0  0  0  0
   13.4720   -0.6094   15.0935 C   0  0  0  0  0  0  0  0  0  0  0  0
   13.9867   -1.3217   13.4909 S   0  0  0  0  0  0  0  0  0  0  0  0
   15.2319   -2.1691   14.1439 N   0  0  0  0  0  0  0  0  0  0  0  0
   15.7409   -1.7255   15.4401 C   0  0  0  0  0  0  0  0  0  0  0  0
   15.8565   -2.9140   16.4164 C   0  0  0  0  0  0  0  0  0  0  0  0
   16.8949   -2.5460   17.3920 N   0  0  0  0  0  0  0  0  0  0  0  0
   17.5705   -1.3790   16.8571 N   0  0  0  0  0  0  0  0  0  0  0  0
   17.2190   -1.3179   15.4343 C   0  0  0  0  0  0  0  0  0  0  0  0
   14.7496   -0.6356   15.9741 C   0  0  0  0  0  0  0  0  0  0  0  0
   15.3027    0.7334   15.9449 C   0  0  0  0  0  0  0  0  0  0  0  0
   15.6682    1.8331   15.8892 N   0  0  0  0  0  0  0  0  0  0  0  0
   12.9110   -2.7868   17.1138 H   0  0  0  0  0  0  0  0  0  0  0  0
   11.4094   -3.1944   16.3134 H   0  0  0  0  0  0  0  0  0  0  0  0
   12.9057   -3.3126   15.4169 H   0  0  0  0  0  0  0  0  0  0  0  0
   12.0658   -0.6843   16.6656 H   0  0  0  0  0  0  0  0  0  0  0  0
   10.7958   -2.0790   14.3997 H   0  0  0  0  0  0  0  0  0  0  0  0
   11.1631   -0.3682   14.0400 H   0  0  0  0  0  0  0  0  0  0  0  0
    8.8513   -1.1365   13.7885 H   0  0  0  0  0  0  0  0  0  0  0  0
    8.8317   -1.3578   13.8805 H   0  0  0  0  0  0  0  0  0  0  0  0
   13.1896    0.4288   14.8697 H   0  0  0  0  0  0  0  0  0  0  0  0
   15.9594   -2.4529   13.4840 H   0  0  0  0  0  0  0  0  0  0  0  0
   14.9312   -3.1746   16.9268 H   0  0  0  0  0  0  0  0  0  0  0  0
   16.1966   -3.8182   15.8939 H   0  0  0  0  0  0  0  0  0  0  0  0
   16.4738   -2.3365   18.3032 H   0  0  0  0  0  0  0  0  0  0  0  0
   18.5887   -1.4495   16.9620 H   0  0  0  0  0  0  0  0  0  0  0  0
   17.8282   -2.0432   14.8765 H   0  0  0  0  0  0  0  0  0  0  0  0
   17.4205   -0.3353   14.9993 H   0  0  0  0  0  0  0  0  0  0  0  0
   14.4711   -0.8417   17.0157 H   0  0  0  0  0  0  0  0  0  0  0  0
  1  2  1  0
  2  3  1  0
  3  4  1  0
  4  5  1  0
  4  6  2  0
  2  7  1  0
  7  8  1  0
  8  9  1  0
  9 10  1  0
 10 11  1  0
 11 12  1  0
 12 13  1  0
 13 14  1  0
 10 15  1  0
 15 16  1  0
 16 17  3  0
 15  7  1  0
 14 10  1  0
  1 18  1  0
  1 19  1  0
  1 20  1  0
  2 21  1  0
  3 22  1  0
  3 23  1  0
  5 24  1  0
  5 25  1  0
  7 26  1  0
  9 27  1  0
 11 28  1  0
 11 29  1  0
 12 30  1  0
 13 31  1  0
 14 32  1  0
 14 33  1  0
 15 34  1  0
M  END
>  <Energy>  (585) 
242.40762058632035

>  <compound_id>  (585) 
3579

>  <target_id>  (585) 
1

>  <reference_id>  (585) 
93

>  <inspiration_ids>  (585) 
[122, 93]

>  <energy_score>  (585) 
135.5433007339106

>  <distance_score>  (585) 
2.105783490007306

>  <path>  (585) 
/opt/xchem-fragalysis-2/maxwin/BulkDock/SCRATCH/505734/C3579-P93/C3579-P93.minimised.mol

>  <scratch_subdir>  (585) 
/opt/xchem-fragalysis-2/maxwin/BulkDock/SCRATCH/505734/C3579-P93

>  <fragmenstein_runtime>  (585) 
4.910057306289673

>  <fragmenstein_outcome>  (585) 
too moved

>  <fragmenstein_mode>  (585) 
expansion

>  <fragmenstein_error>  (585) 


$$$$
C3582-P122
     RDKit          3D

 22 23  0  0  0  0  0  0  0  0999 V2000
   16.1656    0.6817   15.2402 N   0  0  0  0  0  0  0  0  0  0  0  0
   14.9443   -0.2387   15.1536 N   0  0  0  0  0  0  0  0  0  0  0  0
   14.6621   -1.5697   15.8225 C   0  0  0  0  0  0  0  0  0  0  0  0
   15.2836   -2.1661   16.6260 O   0  0  0  0  0  0  0  0  0  0  0  0
   13.3535   -2.0243   15.3825 C   0  0  0  0  0  0  0  0  0  0  0  0
   12.4289   -2.7712   16.1323 C   0  0  0  0  0  0  0  0  0  0  0  0
   11.2284   -2.8174   15.5564 N   0  0  0  0  0  0  0  0  0  0  0  0
   11.4133   -2.2005   14.3862 N   0  0  0  0  0  0  0  0  0  0  0  0
   12.6714   -1.7106   14.2235 C   0  0  0  0  0  0  0  0  0  0  0  0
   14.3670    0.8707   15.9156 C   0  0  0  0  0  0  0  0  0  0  0  0
   13.1641    1.4589   15.5711 C   0  0  0  0  0  0  0  0  0  0  0  0
   12.8289    2.2364   16.6414 N   0  0  0  0  0  0  0  0  0  0  0  0
   13.7859    2.0499   17.5996 C   0  0  0  0  0  0  0  0  0  0  0  0
   14.7076    1.1995   17.2114 N   0  0  0  0  0  0  0  0  0  0  0  0
   15.9854    1.5933   14.8193 H   0  0  0  0  0  0  0  0  0  0  0  0
   16.4145    0.7896   16.2354 H   0  0  0  0  0  0  0  0  0  0  0  0
   12.5718   -3.2258   17.1057 H   0  0  0  0  0  0  0  0  0  0  0  0
   10.6142   -2.1087   13.7620 H   0  0  0  0  0  0  0  0  0  0  0  0
   12.9482   -1.1487   13.3437 H   0  0  0  0  0  0  0  0  0  0  0  0
   12.5353    1.3713   14.6975 H   0  0  0  0  0  0  0  0  0  0  0  0
   12.0073    2.8183   16.7479 H   0  0  0  0  0  0  0  0  0  0  0  0
   13.7396    2.5446   18.5620 H   0  0  0  0  0  0  0  0  0  0  0  0
  1  2  1  0
  2  3  1  0
  3  4  2  0
  3  5  1  0
  5  6  1  0
  6  7  2  0
  7  8  1  0
  8  9  1  0
  2 10  1  0
 10 11  2  0
 11 12  1  0
 12 13  1  0
 13 14  2  0
  9  5  2  0
 14 10  1  0
  1 15  1  0
  1 16  1  0
  6 17  1  0
  8 18  1  0
  9 19  1  0
 11 20  1  0
 12 21  1  0
 13 22  1  0
M  END
>  <Energy>  (586) 
149.16808180774262

>  <compound_id>  (586) 
3582

>  <target_id>  (586) 
1

>  <reference_id>  (586) 
122

>  <inspiration_ids>  (586) 
[122, 103]

>  <energy_score>  (586) 
46.77730239734831

>  <distance_score>  (586) 
2.1656124068150118

>  <path>  (586) 
/opt/xchem-fragalysis-2/maxwin/BulkDock/SCRATCH/505734/C3582-P122/C3582-P122.minimised.mol

>  <scratch_subdir>  (586) 
/opt/xchem-fragalysis-2/maxwin/BulkDock/SCRATCH/505734/C3582-P122

>  <fragmenstein_runtime>  (586) 
1.976715326309204

>  <fragmenstein_outcome>  (586) 
too moved

>  <fragmenstein_mode>  (586) 
expansion

>  <fragmenstein_error>  (586) 


$$$$
C3582-P103
     RDKit          3D

 22 23  0  0  0  0  0  0  0  0999 V2000
   15.7892    0.3219   14.2370 N   0  0  0  0  0  0  0  0  0  0  0  0
   14.5342   -0.4316   14.5352 N   0  0  0  0  0  0  0  0  0  0  0  0
   14.3229   -1.7601   15.2356 C   0  0  0  0  0  0  0  0  0  0  0  0
   15.0935   -2.4677   15.7770 O   0  0  0  0  0  0  0  0  0  0  0  0
   12.8962   -1.9956   15.2174 C   0  0  0  0  0  0  0  0  0  0  0  0
   11.9947   -1.4254   16.1309 C   0  0  0  0  0  0  0  0  0  0  0  0
   10.7200   -1.5608   15.7743 N   0  0  0  0  0  0  0  0  0  0  0  0
   10.8109   -2.2453   14.6229 N   0  0  0  0  0  0  0  0  0  0  0  0
   12.0900   -2.5668   14.2679 C   0  0  0  0  0  0  0  0  0  0  0  0
   14.3819    0.6817   15.4575 C   0  0  0  0  0  0  0  0  0  0  0  0
   13.5211    1.7349   15.1970 C   0  0  0  0  0  0  0  0  0  0  0  0
   13.2988    2.3279   16.4055 N   0  0  0  0  0  0  0  0  0  0  0  0
   13.9869    1.6147   17.3449 C   0  0  0  0  0  0  0  0  0  0  0  0
   14.5876    0.5722   16.8187 N   0  0  0  0  0  0  0  0  0  0  0  0
   16.4822   -0.0453   14.9048 H   0  0  0  0  0  0  0  0  0  0  0  0
   16.0987   -0.0375   13.3333 H   0  0  0  0  0  0  0  0  0  0  0  0
   12.2504   -0.8596   17.0130 H   0  0  0  0  0  0  0  0  0  0  0  0
    9.9661   -2.3621   14.0661 H   0  0  0  0  0  0  0  0  0  0  0  0
   12.2986   -3.0797   13.3460 H   0  0  0  0  0  0  0  0  0  0  0  0
   13.0289    2.0562   14.2913 H   0  0  0  0  0  0  0  0  0  0  0  0
   12.7107    3.1303   16.5915 H   0  0  0  0  0  0  0  0  0  0  0  0
   13.9835    1.8855   18.3927 H   0  0  0  0  0  0  0  0  0  0  0  0
  1  2  1  0
  2  3  1  0
  3  4  2  0
  3  5  1  0
  5  6  1  0
  6  7  2  0
  7  8  1  0
  8  9  1  0
  2 10  1  0
 10 11  2  0
 11 12  1  0
 12 13  1  0
 13 14  2  0
  9  5  2  0
 14 10  1  0
  1 15  1  0
  1 16  1  0
  6 17  1  0
  8 18  1  0
  9 19  1  0
 11 20  1  0
 12 21  1  0
 13 22  1  0
M  END
>  <Energy>  (587) 
148.78284845119364

>  <compound_id>  (587) 
3582

>  <target_id>  (587) 
1

>  <reference_id>  (587) 
103

>  <inspiration_ids>  (587) 
[122, 103]

>  <energy_score>  (587) 
46.392069040800266

>  <distance_score>  (587) 
2.0728326875479004

>  <path>  (587) 
/opt/xchem-fragalysis-2/maxwin/BulkDock/SCRATCH/505734/C3582-P103/C3582-P103.minimised.mol

>  <scratch_subdir>  (587) 
/opt/xchem-fragalysis-2/maxwin/BulkDock/SCRATCH/505734/C3582-P103

>  <fragmenstein_runtime>  (587) 
1.8642578125

>  <fragmenstein_outcome>  (587) 
too moved

>  <fragmenstein_mode>  (587) 
expansion

>  <fragmenstein_error>  (587) 


$$$$
C3583-P122
     RDKit          3D

 21 21  0  0  0  0  0  0  0  0999 V2000
   14.6495    2.6331   13.8797 C   0  0  0  0  0  0  0  0  0  0  0  0
   14.8041    1.3169   13.1254 C   0  0  0  0  0  0  0  0  0  0  0  0
   14.2018    1.3590   11.7219 C   0  0  0  0  0  0  0  0  0  0  0  0
   14.3398    0.1901   13.9024 O   0  0  0  0  0  0  0  0  0  0  0  0
   13.0093    0.0664   14.1714 C   0  0  0  0  0  0  0  0  0  0  0  0
   12.1492    0.8599   13.8124 O   0  0  0  0  0  0  0  0  0  0  0  0
   12.7020   -1.1239   14.9382 C   0  0  0  0  0  0  0  0  0  0  0  0
   11.4202   -1.6536   15.1836 C   0  0  0  0  0  0  0  0  0  0  0  0
   11.4489   -2.7579   15.9319 N   0  0  0  0  0  0  0  0  0  0  0  0
   12.7557   -2.9700   16.1384 N   0  0  0  0  0  0  0  0  0  0  0  0
   13.5485   -2.0026   15.5909 C   0  0  0  0  0  0  0  0  0  0  0  0
   15.0718    2.5479   14.8865 H   0  0  0  0  0  0  0  0  0  0  0  0
   15.1597    3.4461   13.3536 H   0  0  0  0  0  0  0  0  0  0  0  0
   13.5993    2.9161   13.9976 H   0  0  0  0  0  0  0  0  0  0  0  0
   15.8796    1.1392   13.0051 H   0  0  0  0  0  0  0  0  0  0  0  0
   14.2748    0.3748   11.2481 H   0  0  0  0  0  0  0  0  0  0  0  0
   13.1440    1.6366   11.7295 H   0  0  0  0  0  0  0  0  0  0  0  0
   14.7290    2.0875   11.0975 H   0  0  0  0  0  0  0  0  0  0  0  0
   10.4662   -1.2696   14.8412 H   0  0  0  0  0  0  0  0  0  0  0  0
   13.0321   -3.7944   16.6633 H   0  0  0  0  0  0  0  0  0  0  0  0
   14.6246   -2.0319   15.6881 H   0  0  0  0  0  0  0  0  0  0  0  0
  1  2  1  0
  2  3  1  0
  2  4  1  0
  4  5  1  0
  5  6  2  0
  5  7  1  0
  7  8  1  0
  8  9  2  0
  9 10  1  0
 10 11  1  0
 11  7  2  0
  1 12  1  0
  1 13  1  0
  1 14  1  0
  2 15  1  0
  3 16  1  0
  3 17  1  0
  3 18  1  0
  8 19  1  0
 10 20  1  0
 11 21  1  0
M  END
>  <Energy>  (588) 
10.124172717377924

>  <compound_id>  (588) 
3583

>  <target_id>  (588) 
1

>  <reference_id>  (588) 
122

>  <inspiration_ids>  (588) 
[122, 111]

>  <energy_score>  (588) 
-23.05711249686148

>  <distance_score>  (588) 
1.0693360856863892

>  <path>  (588) 
/opt/xchem-fragalysis-2/maxwin/BulkDock/SCRATCH/505734/C3583-P122/C3583-P122.minimised.mol

>  <scratch_subdir>  (588) 
/opt/xchem-fragalysis-2/maxwin/BulkDock/SCRATCH/505734/C3583-P122

>  <fragmenstein_runtime>  (588) 
8.01844048500061

>  <fragmenstein_outcome>  (588) 
too moved

>  <fragmenstein_mode>  (588) 
expansion

>  <fragmenstein_error>  (588) 


$$$$
C3583-P111
     RDKit          3D

 21 21  0  0  0  0  0  0  0  0999 V2000
   14.6716    2.6108   13.9001 C   0  0  0  0  0  0  0  0  0  0  0  0
   14.8102    1.2953   13.1414 C   0  0  0  0  0  0  0  0  0  0  0  0
   14.2103    1.3508   11.7372 C   0  0  0  0  0  0  0  0  0  0  0  0
   14.3297    0.1708   13.9124 O   0  0  0  0  0  0  0  0  0  0  0  0
   12.9970    0.0625   14.1765 C   0  0  0  0  0  0  0  0  0  0  0  0
   12.1505    0.8770   13.8323 O   0  0  0  0  0  0  0  0  0  0  0  0
   12.6682   -1.1385   14.9170 C   0  0  0  0  0  0  0  0  0  0  0  0
   11.3785   -1.6658   15.1240 C   0  0  0  0  0  0  0  0  0  0  0  0
   11.3859   -2.7825   15.8537 N   0  0  0  0  0  0  0  0  0  0  0  0
   12.6866   -3.0039   16.0889 N   0  0  0  0  0  0  0  0  0  0  0  0
   13.4961   -2.0314   15.5746 C   0  0  0  0  0  0  0  0  0  0  0  0
   15.0893    2.5160   14.9079 H   0  0  0  0  0  0  0  0  0  0  0  0
   15.1951    3.4184   13.3786 H   0  0  0  0  0  0  0  0  0  0  0  0
   13.6253    2.9087   14.0154 H   0  0  0  0  0  0  0  0  0  0  0  0
   15.8835    1.1040   13.0220 H   0  0  0  0  0  0  0  0  0  0  0  0
   14.2744    0.3682   11.2590 H   0  0  0  0  0  0  0  0  0  0  0  0
   13.1552    1.6383   11.7449 H   0  0  0  0  0  0  0  0  0  0  0  0
   14.7457    2.0770   11.1171 H   0  0  0  0  0  0  0  0  0  0  0  0
   10.4337   -1.2726   14.7665 H   0  0  0  0  0  0  0  0  0  0  0  0
   12.9460   -3.8391   16.6063 H   0  0  0  0  0  0  0  0  0  0  0  0
   14.5695   -2.0680   15.6959 H   0  0  0  0  0  0  0  0  0  0  0  0
  1  2  1  0
  2  3  1  0
  2  4  1  0
  4  5  1  0
  5  6  2  0
  5  7  1  0
  7  8  1  0
  8  9  2  0
  9 10  1  0
 10 11  1  0
 11  7  2  0
  1 12  1  0
  1 13  1  0
  1 14  1  0
  2 15  1  0
  3 16  1  0
  3 17  1  0
  3 18  1  0
  8 19  1  0
 10 20  1  0
 11 21  1  0
M  END
>  <Energy>  (589) 
10.225128078657931

>  <compound_id>  (589) 
3583

>  <target_id>  (589) 
1

>  <reference_id>  (589) 
111

>  <inspiration_ids>  (589) 
[122, 111]

>  <energy_score>  (589) 
-22.956157135582288

>  <distance_score>  (589) 
1.0687623831608577

>  <path>  (589) 
/opt/xchem-fragalysis-2/maxwin/BulkDock/SCRATCH/505734/C3583-P111/C3583-P111.minimised.mol

>  <scratch_subdir>  (589) 
/opt/xchem-fragalysis-2/maxwin/BulkDock/SCRATCH/505734/C3583-P111

>  <fragmenstein_runtime>  (589) 
6.947069406509399

>  <fragmenstein_outcome>  (589) 
too moved

>  <fragmenstein_mode>  (589) 
expansion

>  <fragmenstein_error>  (589) 


$$$$
C3585-P122
     RDKit          3D

 37 39  0  0  0  0  0  0  0  0999 V2000
   13.3029   -4.0359   16.2354 O   0  0  0  0  0  0  0  0  0  0  0  0
   13.6969   -3.0263   16.8010 C   0  0  0  0  0  0  0  0  0  0  0  0
   14.4096   -3.0206   17.9682 O   0  0  0  0  0  0  0  0  0  0  0  0
   14.4883   -4.2928   18.6375 C   0  0  0  0  0  0  0  0  0  0  0  0
   14.2476   -4.1429   20.1413 C   0  0  0  0  0  0  0  0  0  0  0  0
   12.8345   -3.8564   20.5207 C   0  0  0  0  0  0  0  0  0  0  0  0
   11.8675   -3.0743   19.9975 C   0  0  0  0  0  0  0  0  0  0  0  0
    9.7238   -2.9360   20.2766 C   0  0  0  0  0  0  0  0  0  0  0  0
    8.4242   -1.2036   19.6102 C   0  0  0  0  0  0  0  0  0  0  0  0
    7.2080   -1.5962   20.6586 C   0  0  0  0  0  0  0  0  0  0  0  0
    5.8396   -2.3093   21.2492 C   0  0  0  0  0  0  0  0  0  0  0  0
    5.3702   -1.3997   22.0646 C   0  0  0  0  0  0  0  0  0  0  0  0
    5.7453   -0.2291   21.3852 C   0  0  0  0  0  0  0  0  0  0  0  0
    7.1985   -0.2483   20.1418 C   0  0  0  0  0  0  0  0  0  0  0  0
   11.1273   -3.5053   21.5446 N   0  0  0  0  0  0  0  0  0  0  0  0
   12.1328   -4.4870   21.4312 N   0  0  0  0  0  0  0  0  0  0  0  0
   13.3743   -1.6968   16.3295 C   0  0  0  0  0  0  0  0  0  0  0  0
   12.5095   -1.3415   15.2685 C   0  0  0  0  0  0  0  0  0  0  0  0
   12.3852   -0.0178   15.1295 N   0  0  0  0  0  0  0  0  0  0  0  0
   13.1895    0.4792   16.0792 N   0  0  0  0  0  0  0  0  0  0  0  0
   13.7987   -0.4823   16.8291 C   0  0  0  0  0  0  0  0  0  0  0  0
   15.4979   -4.6814   18.4680 H   0  0  0  0  0  0  0  0  0  0  0  0
   13.7672   -5.0139   18.2439 H   0  0  0  0  0  0  0  0  0  0  0  0
   14.8811   -3.3432   20.5426 H   0  0  0  0  0  0  0  0  0  0  0  0
   14.5582   -5.0776   20.6247 H   0  0  0  0  0  0  0  0  0  0  0  0
   12.2025   -3.0239   18.9257 H   0  0  0  0  0  0  0  0  0  0  0  0
    8.9372   -3.9121   20.0555 H   0  0  0  0  0  0  0  0  0  0  0  0
    7.5945   -2.9277   21.1485 H   0  0  0  0  0  0  0  0  0  0  0  0
    5.4176   -3.1395   20.7320 H   0  0  0  0  0  0  0  0  0  0  0  0
    4.6668   -1.5628   22.8643 H   0  0  0  0  0  0  0  0  0  0  0  0
    5.1565    0.6029   21.7111 H   0  0  0  0  0  0  0  0  0  0  0  0
    7.1667    0.6804   19.5424 H   0  0  0  0  0  0  0  0  0  0  0  0
   11.3485   -2.8276   22.2861 H   0  0  0  0  0  0  0  0  0  0  0  0
   12.6592   -4.6730   22.2851 H   0  0  0  0  0  0  0  0  0  0  0  0
   11.9527   -1.9954   14.6056 H   0  0  0  0  0  0  0  0  0  0  0  0
   13.2652    1.4881   16.1677 H   0  0  0  0  0  0  0  0  0  0  0  0
   14.4615   -0.2272   17.6444 H   0  0  0  0  0  0  0  0  0  0  0  0
  1  2  2  0
  2  3  1  0
  3  4  1  0
  4  5  1  0
  5  6  1  0
  6  7  2  0
  7  8  1  0
  8  9  1  0
  9 10  2  0
 10 11  1  0
 11 12  2  0
 12 13  1  0
 13 14  2  0
  8 15  1  0
 15 16  1  0
  2 17  1  0
 17 18  1  0
 18 19  2  0
 19 20  1  0
 20 21  1  0
 16  6  1  0
 21 17  2  0
 14  9  1  0
  4 22  1  0
  4 23  1  0
  5 24  1  0
  5 25  1  0
  7 26  1  0
  8 27  1  0
 10 28  1  0
 11 29  1  0
 12 30  1  0
 13 31  1  0
 14 32  1  0
 15 33  1  0
 16 34  1  0
 18 35  1  0
 20 36  1  0
 21 37  1  0
M  END
>  <Energy>  (590) 
1028.2251146345825

>  <compound_id>  (590) 
3585

>  <target_id>  (590) 
1

>  <reference_id>  (590) 
122

>  <inspiration_ids>  (590) 
[122, 114]

>  <energy_score>  (590) 
934.7353928952743

>  <distance_score>  (590) 
2.6078432734864285

>  <path>  (590) 
/opt/xchem-fragalysis-2/maxwin/BulkDock/SCRATCH/505734/C3585-P122/C3585-P122.minimised.mol

>  <scratch_subdir>  (590) 
/opt/xchem-fragalysis-2/maxwin/BulkDock/SCRATCH/505734/C3585-P122

>  <fragmenstein_runtime>  (590) 
10.255005359649658

>  <fragmenstein_outcome>  (590) 
too moved

>  <fragmenstein_mode>  (590) 
expansion

>  <fragmenstein_error>  (590) 


$$$$
C3585-P114
     RDKit          3D

 37 39  0  0  0  0  0  0  0  0999 V2000
   15.0710   -3.4042   19.4199 O   0  0  0  0  0  0  0  0  0  0  0  0
   14.2861   -3.9770   18.6714 C   0  0  0  0  0  0  0  0  0  0  0  0
   13.8896   -5.2751   18.8226 O   0  0  0  0  0  0  0  0  0  0  0  0
   14.1131   -5.8829   20.1100 C   0  0  0  0  0  0  0  0  0  0  0  0
   12.7771   -6.1771   20.8436 C   0  0  0  0  0  0  0  0  0  0  0  0
   11.5795   -5.3023   20.4826 C   0  0  0  0  0  0  0  0  0  0  0  0
   10.0422   -5.2544   20.0839 C   0  0  0  0  0  0  0  0  0  0  0  0
    9.1582   -3.3293   20.2183 C   0  0  0  0  0  0  0  0  0  0  0  0
    8.3294   -1.3091   19.5238 C   0  0  0  0  0  0  0  0  0  0  0  0
    7.3240   -1.3430   20.5226 C   0  0  0  0  0  0  0  0  0  0  0  0
    5.9566   -2.1904   21.1490 C   0  0  0  0  0  0  0  0  0  0  0  0
    5.4096   -1.3696   22.0367 C   0  0  0  0  0  0  0  0  0  0  0  0
    5.6877   -0.2290   21.3305 C   0  0  0  0  0  0  0  0  0  0  0  0
    7.0929   -0.2440   20.0001 C   0  0  0  0  0  0  0  0  0  0  0  0
   10.9286   -3.4205   21.1268 N   0  0  0  0  0  0  0  0  0  0  0  0
   12.0329   -4.0697   20.7990 N   0  0  0  0  0  0  0  0  0  0  0  0
   13.6941   -3.3359   17.5104 C   0  0  0  0  0  0  0  0  0  0  0  0
   12.6521   -3.7778   16.6690 C   0  0  0  0  0  0  0  0  0  0  0  0
   12.3255   -2.8884   15.7255 N   0  0  0  0  0  0  0  0  0  0  0  0
   13.1758   -1.8761   15.9418 N   0  0  0  0  0  0  0  0  0  0  0  0
   14.0093   -2.0899   16.9985 C   0  0  0  0  0  0  0  0  0  0  0  0
   14.7464   -5.2531   20.7474 H   0  0  0  0  0  0  0  0  0  0  0  0
   14.6837   -6.8058   19.9690 H   0  0  0  0  0  0  0  0  0  0  0  0
   12.5203   -7.1867   21.1408 H   0  0  0  0  0  0  0  0  0  0  0  0
   13.0495   -5.8882   21.8810 H   0  0  0  0  0  0  0  0  0  0  0  0
    9.7090   -5.9890   19.4229 H   0  0  0  0  0  0  0  0  0  0  0  0
    8.2953   -3.7350   20.9149 H   0  0  0  0  0  0  0  0  0  0  0  0
    8.0557   -0.8662   21.2688 H   0  0  0  0  0  0  0  0  0  0  0  0
    5.5760   -3.0660   20.6651 H   0  0  0  0  0  0  0  0  0  0  0  0
    4.7427   -1.5479   22.8539 H   0  0  0  0  0  0  0  0  0  0  0  0
    5.0929    0.5819   21.6938 H   0  0  0  0  0  0  0  0  0  0  0  0
    7.1469    0.6678   19.3773 H   0  0  0  0  0  0  0  0  0  0  0  0
   10.9616   -3.1462   22.1018 H   0  0  0  0  0  0  0  0  0  0  0  0
   12.8513   -3.9301   21.3892 H   0  0  0  0  0  0  0  0  0  0  0  0
   12.0982   -4.7040   16.7191 H   0  0  0  0  0  0  0  0  0  0  0  0
   13.1269   -1.0685   15.3290 H   0  0  0  0  0  0  0  0  0  0  0  0
   14.7374   -1.3530   17.3072 H   0  0  0  0  0  0  0  0  0  0  0  0
  1  2  2  0
  2  3  1  0
  3  4  1  0
  4  5  1  0
  5  6  1  0
  6  7  2  0
  7  8  1  0
  8  9  1  0
  9 10  2  0
 10 11  1  0
 11 12  2  0
 12 13  1  0
 13 14  2  0
  8 15  1  0
 15 16  1  0
  2 17  1  0
 17 18  1  0
 18 19  2  0
 19 20  1  0
 20 21  1  0
 16  6  1  0
 21 17  2  0
 14  9  1  0
  4 22  1  0
  4 23  1  0
  5 24  1  0
  5 25  1  0
  7 26  1  0
  8 27  1  0
 10 28  1  0
 11 29  1  0
 12 30  1  0
 13 31  1  0
 14 32  1  0
 15 33  1  0
 16 34  1  0
 18 35  1  0
 20 36  1  0
 21 37  1  0
M  END
>  <Energy>  (591) 
1053.6953283142318

>  <compound_id>  (591) 
3585

>  <target_id>  (591) 
1

>  <reference_id>  (591) 
114

>  <inspiration_ids>  (591) 
[122, 114]

>  <energy_score>  (591) 
960.2056065749348

>  <distance_score>  (591) 
3.4619552853864963

>  <path>  (591) 
/opt/xchem-fragalysis-2/maxwin/BulkDock/SCRATCH/505734/C3585-P114/C3585-P114.minimised.mol

>  <scratch_subdir>  (591) 
/opt/xchem-fragalysis-2/maxwin/BulkDock/SCRATCH/505734/C3585-P114

>  <fragmenstein_runtime>  (591) 
10.176437139511108

>  <fragmenstein_outcome>  (591) 
too moved

>  <fragmenstein_mode>  (591) 
expansion

>  <fragmenstein_error>  (591) 


$$$$
C3582-P122
     RDKit          2D

  0  0  0  0  0  0  0  0  0  0999 V2000
M  END
>  <compound_id>  (592) 
3582

>  <target_id>  (592) 
1

>  <reference_id>  (592) 
122

>  <inspiration_ids>  (592) 
[122, 117]

>  <energy_score>  (592) 
nan

>  <distance_score>  (592) 
nan

>  <path>  (592) 
/opt/xchem-fragalysis-2/maxwin/BulkDock/SCRATCH/505734/C3582-P122/C3582-P122.minimised.mol

>  <scratch_subdir>  (592) 
/opt/xchem-fragalysis-2/maxwin/BulkDock/SCRATCH/505734/C3582-P122

>  <fragmenstein_runtime>  (592) 
0.11356973648071289

>  <fragmenstein_outcome>  (592) 
crashed

>  <fragmenstein_mode>  (592) 
expansion

>  <fragmenstein_error>  (592) 
PoisonError: None has poison atoms [4, 8, 10, 9, 4]

$$$$
C3203-P122
     RDKit          3D

 33 34  0  0  0  0  0  0  0  0999 V2000
   12.0798   -2.6115   13.3969 C   0  0  0  0  0  0  0  0  0  0  0  0
   12.1989   -2.3667   14.8534 C   0  0  0  0  0  0  0  0  0  0  0  0
   11.9667   -3.4561   15.6949 C   0  0  0  0  0  0  0  0  0  0  0  0
   12.6159   -3.5421   16.8977 C   0  0  0  0  0  0  0  0  0  0  0  0
   12.6111   -4.6744   17.5911 F   0  0  0  0  0  0  0  0  0  0  0  0
   13.3683   -2.4995   17.3430 C   0  0  0  0  0  0  0  0  0  0  0  0
   13.4208   -1.3343   16.5753 C   0  0  0  0  0  0  0  0  0  0  0  0
   14.6176   -0.1747   17.0670 S   0  0  0  0  0  0  0  0  0  0  0  0
   15.8158   -1.1744   17.6634 N   0  0  0  0  0  0  0  0  0  0  0  0
   15.1611    0.4063   15.8677 O   0  0  0  0  0  0  0  0  0  0  0  0
   14.0981    0.5944   18.1668 O   0  0  0  0  0  0  0  0  0  0  0  0
   12.7829   -1.1973   15.3341 C   0  0  0  0  0  0  0  0  0  0  0  0
   12.8717    0.0926   14.5232 C   0  0  0  0  0  0  0  0  0  0  0  0
   11.8453    0.2997   13.5337 O   0  0  0  0  0  0  0  0  0  0  0  0
   10.8300    1.1606   13.7992 C   0  0  0  0  0  0  0  0  0  0  0  0
   10.5282    2.0561   13.0141 O   0  0  0  0  0  0  0  0  0  0  0  0
   10.0609    0.9013   14.9963 C   0  0  0  0  0  0  0  0  0  0  0  0
    9.6147   -0.3385   15.4865 C   0  0  0  0  0  0  0  0  0  0  0  0
    8.8302   -0.2183   16.5567 N   0  0  0  0  0  0  0  0  0  0  0  0
    8.6150    1.1115   16.6365 N   0  0  0  0  0  0  0  0  0  0  0  0
    9.4377    1.8258   15.8135 C   0  0  0  0  0  0  0  0  0  0  0  0
   11.6217   -1.7719   12.9201 H   0  0  0  0  0  0  0  0  0  0  0  0
   13.0772   -2.7098   12.9594 H   0  0  0  0  0  0  0  0  0  0  0  0
   11.5003   -3.5106   13.1792 H   0  0  0  0  0  0  0  0  0  0  0  0
   11.3709   -4.2944   15.3716 H   0  0  0  0  0  0  0  0  0  0  0  0
   13.9170   -2.6187   18.2719 H   0  0  0  0  0  0  0  0  0  0  0  0
   16.6544   -1.1063   17.0840 H   0  0  0  0  0  0  0  0  0  0  0  0
   15.9885   -0.9761   18.6507 H   0  0  0  0  0  0  0  0  0  0  0  0
   13.8057    0.0764   13.9524 H   0  0  0  0  0  0  0  0  0  0  0  0
   12.8723    0.9650   15.1868 H   0  0  0  0  0  0  0  0  0  0  0  0
    9.8014   -1.3281   15.0943 H   0  0  0  0  0  0  0  0  0  0  0  0
    7.8677    1.4459   17.2507 H   0  0  0  0  0  0  0  0  0  0  0  0
    9.4209    2.9074   15.8046 H   0  0  0  0  0  0  0  0  0  0  0  0
  1  2  1  0
  2  3  2  0
  3  4  1  0
  4  5  1  0
  4  6  2  0
  6  7  1  0
  7  8  1  0
  8  9  1  0
  8 10  2  0
  8 11  2  0
  7 12  2  0
 12 13  1  0
 13 14  1  0
 14 15  1  0
 15 16  2  0
 15 17  1  0
 17 18  1  0
 18 19  2  0
 19 20  1  0
 20 21  1  0
 12  2  1  0
 21 17  2  0
  1 22  1  0
  1 23  1  0
  1 24  1  0
  3 25  1  0
  6 26  1  0
  9 27  1  0
  9 28  1  0
 13 29  1  0
 13 30  1  0
 18 31  1  0
 20 32  1  0
 21 33  1  0
M  END
>  <Energy>  (593) 
-34.859901692648847

>  <compound_id>  (593) 
3203

>  <target_id>  (593) 
1

>  <reference_id>  (593) 
122

>  <inspiration_ids>  (593) 
[122, 118]

>  <energy_score>  (593) 
-8.481944161546508

>  <distance_score>  (593) 
1.576925001417378

>  <path>  (593) 
/opt/xchem-fragalysis-2/maxwin/BulkDock/SCRATCH/505734/C3203-P122/C3203-P122.minimised.mol

>  <scratch_subdir>  (593) 
/opt/xchem-fragalysis-2/maxwin/BulkDock/SCRATCH/505734/C3203-P122

>  <fragmenstein_runtime>  (593) 
1.8642189502716064

>  <fragmenstein_outcome>  (593) 
too moved

>  <fragmenstein_mode>  (593) 
expansion

>  <fragmenstein_error>  (593) 


$$$$
C3203-P118
     RDKit          3D

 33 34  0  0  0  0  0  0  0  0999 V2000
    9.5390   -0.3275   14.8984 C   0  0  0  0  0  0  0  0  0  0  0  0
   10.8058   -1.0668   15.2225 C   0  0  0  0  0  0  0  0  0  0  0  0
   10.7572   -2.4655   15.3115 C   0  0  0  0  0  0  0  0  0  0  0  0
   11.7574   -3.1668   15.9613 C   0  0  0  0  0  0  0  0  0  0  0  0
   11.6014   -4.4370   16.3286 F   0  0  0  0  0  0  0  0  0  0  0  0
   12.8980   -2.5424   16.3516 C   0  0  0  0  0  0  0  0  0  0  0  0
   13.0387   -1.1926   16.0631 C   0  0  0  0  0  0  0  0  0  0  0  0
   14.6306   -0.5320   16.2620 S   0  0  0  0  0  0  0  0  0  0  0  0
   15.5387   -1.8029   16.8565 N   0  0  0  0  0  0  0  0  0  0  0  0
   15.0797   -0.2735   14.9198 O   0  0  0  0  0  0  0  0  0  0  0  0
   14.5750    0.4631   17.3048 O   0  0  0  0  0  0  0  0  0  0  0  0
   12.0051   -0.4036   15.5161 C   0  0  0  0  0  0  0  0  0  0  0  0
   12.1352    1.1073   15.3788 C   0  0  0  0  0  0  0  0  0  0  0  0
   11.6301    1.5771   14.1104 O   0  0  0  0  0  0  0  0  0  0  0  0
   10.8049    2.6662   14.0176 C   0  0  0  0  0  0  0  0  0  0  0  0
   10.1437    2.8574   12.9986 O   0  0  0  0  0  0  0  0  0  0  0  0
   10.6800    3.5102   15.1865 C   0  0  0  0  0  0  0  0  0  0  0  0
   11.6715    4.2523   15.8629 C   0  0  0  0  0  0  0  0  0  0  0  0
   11.2087    4.8284   16.9737 N   0  0  0  0  0  0  0  0  0  0  0  0
    9.9078    4.4873   17.0003 N   0  0  0  0  0  0  0  0  0  0  0  0
    9.5329    3.7318   15.9237 C   0  0  0  0  0  0  0  0  0  0  0  0
    9.3428    0.4352   15.6592 H   0  0  0  0  0  0  0  0  0  0  0  0
    9.5957    0.1444   13.9176 H   0  0  0  0  0  0  0  0  0  0  0  0
    8.6741   -0.9995   14.9101 H   0  0  0  0  0  0  0  0  0  0  0  0
    9.8817   -3.0024   14.9655 H   0  0  0  0  0  0  0  0  0  0  0  0
   13.6597   -3.1426   16.8352 H   0  0  0  0  0  0  0  0  0  0  0  0
   16.2528   -2.0740   16.1766 H   0  0  0  0  0  0  0  0  0  0  0  0
   15.9190   -1.5724   17.7763 H   0  0  0  0  0  0  0  0  0  0  0  0
   13.1665    1.4558   15.4162 H   0  0  0  0  0  0  0  0  0  0  0  0
   11.6043    1.5337   16.2332 H   0  0  0  0  0  0  0  0  0  0  0  0
   12.7177    4.3745   15.6086 H   0  0  0  0  0  0  0  0  0  0  0  0
    9.3416    4.7724   17.7974 H   0  0  0  0  0  0  0  0  0  0  0  0
    8.5135    3.3877   15.8182 H   0  0  0  0  0  0  0  0  0  0  0  0
  1  2  1  0
  2  3  2  0
  3  4  1  0
  4  5  1  0
  4  6  2  0
  6  7  1  0
  7  8  1  0
  8  9  1  0
  8 10  2  0
  8 11  2  0
  7 12  2  0
 12 13  1  0
 13 14  1  0
 14 15  1  0
 15 16  2  0
 15 17  1  0
 17 18  1  0
 18 19  2  0
 19 20  1  0
 20 21  1  0
 12  2  1  0
 21 17  2  0
  1 22  1  0
  1 23  1  0
  1 24  1  0
  3 25  1  0
  6 26  1  0
  9 27  1  0
  9 28  1  0
 13 29  1  0
 13 30  1  0
 18 31  1  0
 20 32  1  0
 21 33  1  0
M  END
>  <Energy>  (594) 
-42.367067233457931

>  <compound_id>  (594) 
3203

>  <target_id>  (594) 
1

>  <reference_id>  (594) 
118

>  <inspiration_ids>  (594) 
[122, 118]

>  <energy_score>  (594) 
-15.989109702357737

>  <distance_score>  (594) 
1.5598982321169672

>  <path>  (594) 
/opt/xchem-fragalysis-2/maxwin/BulkDock/SCRATCH/505734/C3203-P118/C3203-P118.minimised.mol

>  <scratch_subdir>  (594) 
/opt/xchem-fragalysis-2/maxwin/BulkDock/SCRATCH/505734/C3203-P118

>  <fragmenstein_runtime>  (594) 
1.8255772590637207

>  <fragmenstein_outcome>  (594) 
too moved

>  <fragmenstein_mode>  (594) 
expansion

>  <fragmenstein_error>  (594) 


$$$$
C3315-P122
     RDKit          3D

 28 29  0  0  0  0  0  0  0  0999 V2000
   14.0518   -2.4330   12.0992 N   0  0  0  0  0  0  0  0  0  0  0  0
   13.9270   -1.8269   13.3395 C   0  0  0  0  0  0  0  0  0  0  0  0
   12.8752   -2.1457   14.2049 C   0  0  0  0  0  0  0  0  0  0  0  0
   12.7281   -1.4494   15.3904 C   0  0  0  0  0  0  0  0  0  0  0  0
   13.5584   -0.3497   15.6252 C   0  0  0  0  0  0  0  0  0  0  0  0
   13.0764    0.8684   16.7987 S   0  0  0  0  0  0  0  0  0  0  0  0
   11.8228    1.6490   15.7417 C   0  0  0  0  0  0  0  0  0  0  0  0
   10.9323    2.3408   16.4952 F   0  0  0  0  0  0  0  0  0  0  0  0
   11.0951    0.6963   15.0930 F   0  0  0  0  0  0  0  0  0  0  0  0
   14.6049   -0.0435   14.7517 C   0  0  0  0  0  0  0  0  0  0  0  0
   15.5140    1.0101   14.9677 O   0  0  0  0  0  0  0  0  0  0  0  0
   16.3858    0.9869   16.0764 C   0  0  0  0  0  0  0  0  0  0  0  0
   16.9852    2.0045   16.4110 O   0  0  0  0  0  0  0  0  0  0  0  0
   16.5045   -0.2622   16.8076 C   0  0  0  0  0  0  0  0  0  0  0  0
   16.5680   -1.5953   16.3451 C   0  0  0  0  0  0  0  0  0  0  0  0
   16.5357   -2.4801   17.3393 N   0  0  0  0  0  0  0  0  0  0  0  0
   16.5225   -1.7211   18.4441 N   0  0  0  0  0  0  0  0  0  0  0  0
   16.5419   -0.3887   18.1814 C   0  0  0  0  0  0  0  0  0  0  0  0
   14.7713   -0.7584   13.5944 C   0  0  0  0  0  0  0  0  0  0  0  0
   15.0020   -2.4251   11.7413 H   0  0  0  0  0  0  0  0  0  0  0  0
   13.7054   -3.3877   12.0772 H   0  0  0  0  0  0  0  0  0  0  0  0
   12.1527   -2.9152   13.9429 H   0  0  0  0  0  0  0  0  0  0  0  0
   11.8863   -1.6749   16.0372 H   0  0  0  0  0  0  0  0  0  0  0  0
   12.2708    2.3203   15.0041 H   0  0  0  0  0  0  0  0  0  0  0  0
   16.6150   -1.9702   15.3311 H   0  0  0  0  0  0  0  0  0  0  0  0
   16.5087   -2.1845   19.3477 H   0  0  0  0  0  0  0  0  0  0  0  0
   16.5279    0.3482   18.9728 H   0  0  0  0  0  0  0  0  0  0  0  0
   15.5488   -0.4805   12.8897 H   0  0  0  0  0  0  0  0  0  0  0  0
  1  2  1  0
  2  3  2  0
  3  4  1  0
  4  5  2  0
  5  6  1  0
  6  7  1  0
  7  8  1  0
  7  9  1  0
  5 10  1  0
 10 11  1  0
 11 12  1  0
 12 13  2  0
 12 14  1  0
 14 15  1  0
 15 16  2  0
 16 17  1  0
 17 18  1  0
 10 19  2  0
 19  2  1  0
 18 14  2  0
  1 20  1  0
  1 21  1  0
  3 22  1  0
  4 23  1  0
  7 24  1  0
 15 25  1  0
 17 26  1  0
 18 27  1  0
 19 28  1  0
M  END
>  <Energy>  (595) 
53.551965650363712

>  <compound_id>  (595) 
3315

>  <target_id>  (595) 
1

>  <reference_id>  (595) 
122

>  <inspiration_ids>  (595) 
[122, 124]

>  <energy_score>  (595) 
-6.959314400379469

>  <distance_score>  (595) 
3.0690687771076837

>  <path>  (595) 
/opt/xchem-fragalysis-2/maxwin/BulkDock/SCRATCH/505734/C3315-P122/C3315-P122.minimised.mol

>  <scratch_subdir>  (595) 
/opt/xchem-fragalysis-2/maxwin/BulkDock/SCRATCH/505734/C3315-P122

>  <fragmenstein_runtime>  (595) 
7.0275774002075195

>  <fragmenstein_outcome>  (595) 
too moved

>  <fragmenstein_mode>  (595) 
expansion

>  <fragmenstein_error>  (595) 


$$$$
C3315-P124
     RDKit          3D

 28 29  0  0  0  0  0  0  0  0999 V2000
   11.4294   -0.4568   13.4954 N   0  0  0  0  0  0  0  0  0  0  0  0
   12.2590   -1.4226   14.0734 C   0  0  0  0  0  0  0  0  0  0  0  0
   11.7629   -2.3034   15.0360 C   0  0  0  0  0  0  0  0  0  0  0  0
   12.6408   -3.0250   15.8374 C   0  0  0  0  0  0  0  0  0  0  0  0
   14.0230   -2.8590   15.6781 C   0  0  0  0  0  0  0  0  0  0  0  0
   15.1238   -3.7042   16.7688 S   0  0  0  0  0  0  0  0  0  0  0  0
   14.7028   -2.8531   18.2773 C   0  0  0  0  0  0  0  0  0  0  0  0
   13.8302   -3.6001   18.9961 F   0  0  0  0  0  0  0  0  0  0  0  0
   14.0776   -1.6921   17.9645 F   0  0  0  0  0  0  0  0  0  0  0  0
   14.5004   -2.0442   14.6412 C   0  0  0  0  0  0  0  0  0  0  0  0
   15.8623   -1.9966   14.2456 O   0  0  0  0  0  0  0  0  0  0  0  0
   16.9205   -1.5603   15.0548 C   0  0  0  0  0  0  0  0  0  0  0  0
   18.0702   -1.9386   14.8519 O   0  0  0  0  0  0  0  0  0  0  0  0
   16.5884   -0.6470   16.1282 C   0  0  0  0  0  0  0  0  0  0  0  0
   15.5788    0.3319   16.2063 C   0  0  0  0  0  0  0  0  0  0  0  0
   15.5646    0.9586   17.3833 N   0  0  0  0  0  0  0  0  0  0  0  0
   16.5970    0.4186   18.0458 N   0  0  0  0  0  0  0  0  0  0  0  0
   17.2429   -0.5504   17.3411 C   0  0  0  0  0  0  0  0  0  0  0  0
   13.6269   -1.3120   13.8585 C   0  0  0  0  0  0  0  0  0  0  0  0
   11.3703    0.3799   14.0856 H   0  0  0  0  0  0  0  0  0  0  0  0
   10.4753   -0.8153   13.3423 H   0  0  0  0  0  0  0  0  0  0  0  0
   10.6914   -2.4024   15.1799 H   0  0  0  0  0  0  0  0  0  0  0  0
   12.2425   -3.7007   16.5913 H   0  0  0  0  0  0  0  0  0  0  0  0
   15.5795   -2.6427   18.8941 H   0  0  0  0  0  0  0  0  0  0  0  0
   14.8496    0.6299   15.4640 H   0  0  0  0  0  0  0  0  0  0  0  0
   16.8111    0.7719   18.9736 H   0  0  0  0  0  0  0  0  0  0  0  0
   18.1007   -1.0742   17.7409 H   0  0  0  0  0  0  0  0  0  0  0  0
   13.9991   -0.6486   13.0833 H   0  0  0  0  0  0  0  0  0  0  0  0
  1  2  1  0
  2  3  2  0
  3  4  1  0
  4  5  2  0
  5  6  1  0
  6  7  1  0
  7  8  1  0
  7  9  1  0
  5 10  1  0
 10 11  1  0
 11 12  1  0
 12 13  2  0
 12 14  1  0
 14 15  1  0
 15 16  2  0
 16 17  1  0
 17 18  1  0
 10 19  2  0
 19  2  1  0
 18 14  2  0
  1 20  1  0
  1 21  1  0
  3 22  1  0
  4 23  1  0
  7 24  1  0
 15 25  1  0
 17 26  1  0
 18 27  1  0
 19 28  1  0
M  END
>  <Energy>  (596) 
56.012228410860757

>  <compound_id>  (596) 
3315

>  <target_id>  (596) 
1

>  <reference_id>  (596) 
124

>  <inspiration_ids>  (596) 
[122, 124]

>  <energy_score>  (596) 
-4.499051639882566

>  <distance_score>  (596) 
1.9853450644951285

>  <path>  (596) 
/opt/xchem-fragalysis-2/maxwin/BulkDock/SCRATCH/505734/C3315-P124/C3315-P124.minimised.mol

>  <scratch_subdir>  (596) 
/opt/xchem-fragalysis-2/maxwin/BulkDock/SCRATCH/505734/C3315-P124

>  <fragmenstein_runtime>  (596) 
7.244126558303833

>  <fragmenstein_outcome>  (596) 
too moved

>  <fragmenstein_mode>  (596) 
expansion

>  <fragmenstein_error>  (596) 


$$$$
C3479-P122
     RDKit          3D

 30 32  0  0  0  0  0  0  0  0999 V2000
   11.4091   -0.5533   14.0684 N   0  0  0  0  0  0  0  0  0  0  0  0
   12.0510   -1.2880   15.0587 C   0  0  0  0  0  0  0  0  0  0  0  0
   11.7599   -2.6382   15.2522 C   0  0  0  0  0  0  0  0  0  0  0  0
   12.5386   -3.4183   16.1107 C   0  0  0  0  0  0  0  0  0  0  0  0
   13.6731   -2.8742   16.7153 C   0  0  0  0  0  0  0  0  0  0  0  0
   14.6154   -3.6897   17.4519 C   0  0  0  0  0  0  0  0  0  0  0  0
   14.0994   -4.4184   18.4848 O   0  0  0  0  0  0  0  0  0  0  0  0
   15.1202   -5.1263   19.1098 N   0  0  0  0  0  0  0  0  0  0  0  0
   16.2346   -4.8087   18.4432 C   0  0  0  0  0  0  0  0  0  0  0  0
   15.9711   -3.9181   17.3924 C   0  0  0  0  0  0  0  0  0  0  0  0
   16.8230   -3.4782   16.4422 O   0  0  0  0  0  0  0  0  0  0  0  0
   17.4346   -2.2715   16.6598 C   0  0  0  0  0  0  0  0  0  0  0  0
   17.2559   -1.5569   17.6401 O   0  0  0  0  0  0  0  0  0  0  0  0
   18.3408   -1.9131   15.5812 C   0  0  0  0  0  0  0  0  0  0  0  0
   18.7537   -2.6721   14.4638 C   0  0  0  0  0  0  0  0  0  0  0  0
   19.6156   -2.0186   13.6795 N   0  0  0  0  0  0  0  0  0  0  0  0
   19.7461   -0.8240   14.2773 N   0  0  0  0  0  0  0  0  0  0  0  0
   19.0137   -0.7141   15.4230 C   0  0  0  0  0  0  0  0  0  0  0  0
   13.9433   -1.5162   16.5452 C   0  0  0  0  0  0  0  0  0  0  0  0
   13.1441   -0.7333   15.7177 C   0  0  0  0  0  0  0  0  0  0  0  0
   11.3273    0.4399   14.2365 H   0  0  0  0  0  0  0  0  0  0  0  0
   10.5441   -0.9713   13.6975 H   0  0  0  0  0  0  0  0  0  0  0  0
   10.9344   -3.1009   14.7170 H   0  0  0  0  0  0  0  0  0  0  0  0
   12.2909   -4.4671   16.2554 H   0  0  0  0  0  0  0  0  0  0  0  0
   17.1698   -5.2598   18.7417 H   0  0  0  0  0  0  0  0  0  0  0  0
   18.4602   -3.6783   14.1885 H   0  0  0  0  0  0  0  0  0  0  0  0
   20.3592   -0.1352   13.8520 H   0  0  0  0  0  0  0  0  0  0  0  0
   19.0277    0.1870   16.0206 H   0  0  0  0  0  0  0  0  0  0  0  0
   14.7959   -1.0511   17.0340 H   0  0  0  0  0  0  0  0  0  0  0  0
   13.4121    0.3068   15.5534 H   0  0  0  0  0  0  0  0  0  0  0  0
  1  2  1  0
  2  3  2  0
  3  4  1  0
  4  5  2  0
  5  6  1  0
  6  7  1  0
  7  8  1  0
  8  9  2  0
  9 10  1  0
 10 11  1  0
 11 12  1  0
 12 13  2  0
 12 14  1  0
 14 15  1  0
 15 16  2  0
 16 17  1  0
 17 18  1  0
  5 19  1  0
 19 20  2  0
 20  2  1  0
 10  6  2  0
 18 14  2  0
  1 21  1  0
  1 22  1  0
  3 23  1  0
  4 24  1  0
  9 25  1  0
 15 26  1  0
 17 27  1  0
 18 28  1  0
 19 29  1  0
 20 30  1  0
M  END
>  <Energy>  (597) 
46.779275891551571

>  <compound_id>  (597) 
3479

>  <target_id>  (597) 
1

>  <reference_id>  (597) 
122

>  <inspiration_ids>  (597) 
[122, 146]

>  <energy_score>  (597) 
-31.902688291333092

>  <distance_score>  (597) 
1.531690346285165

>  <path>  (597) 
/opt/xchem-fragalysis-2/maxwin/BulkDock/SCRATCH/505734/C3479-P122/C3479-P122.minimised.mol

>  <scratch_subdir>  (597) 
/opt/xchem-fragalysis-2/maxwin/BulkDock/SCRATCH/505734/C3479-P122

>  <fragmenstein_runtime>  (597) 
1.9270436763763428

>  <fragmenstein_outcome>  (597) 
too moved

>  <fragmenstein_mode>  (597) 
expansion

>  <fragmenstein_error>  (597) 


$$$$
C3479-P146
     RDKit          3D

 30 32  0  0  0  0  0  0  0  0999 V2000
   11.0871   -0.6175   13.9551 N   0  0  0  0  0  0  0  0  0  0  0  0
   11.9762   -1.4399   14.6401 C   0  0  0  0  0  0  0  0  0  0  0  0
   11.5424   -2.6224   15.2312 C   0  0  0  0  0  0  0  0  0  0  0  0
   12.3811   -3.3453   16.0878 C   0  0  0  0  0  0  0  0  0  0  0  0
   13.6834   -2.9075   16.3505 C   0  0  0  0  0  0  0  0  0  0  0  0
   14.5950   -3.6417   17.2138 C   0  0  0  0  0  0  0  0  0  0  0  0
   14.0219   -4.2752   18.2823 O   0  0  0  0  0  0  0  0  0  0  0  0
   15.0040   -4.8913   19.0460 N   0  0  0  0  0  0  0  0  0  0  0  0
   16.1551   -4.6356   18.4209 C   0  0  0  0  0  0  0  0  0  0  0  0
   15.9555   -3.8494   17.2770 C   0  0  0  0  0  0  0  0  0  0  0  0
   16.8753   -3.4519   16.3724 O   0  0  0  0  0  0  0  0  0  0  0  0
   17.5089   -2.2606   16.6211 C   0  0  0  0  0  0  0  0  0  0  0  0
   17.2852   -1.5297   17.5791 O   0  0  0  0  0  0  0  0  0  0  0  0
   18.4487   -1.9176   15.5693 C   0  0  0  0  0  0  0  0  0  0  0  0
   18.9936   -2.7323   14.5538 C   0  0  0  0  0  0  0  0  0  0  0  0
   19.8092   -2.0653   13.7346 N   0  0  0  0  0  0  0  0  0  0  0  0
   19.8090   -0.8169   14.2292 N   0  0  0  0  0  0  0  0  0  0  0  0
   19.0190   -0.6793   15.3333 C   0  0  0  0  0  0  0  0  0  0  0  0
   14.0969   -1.7031   15.7803 C   0  0  0  0  0  0  0  0  0  0  0  0
   13.2435   -0.9660   14.9609 C   0  0  0  0  0  0  0  0  0  0  0  0
   11.5233    0.0377   13.3142 H   0  0  0  0  0  0  0  0  0  0  0  0
   10.2907   -1.0865   13.5018 H   0  0  0  0  0  0  0  0  0  0  0  0
   10.5419   -2.9904   15.0252 H   0  0  0  0  0  0  0  0  0  0  0  0
   12.0072   -4.2589   16.5469 H   0  0  0  0  0  0  0  0  0  0  0  0
   17.0719   -5.0378   18.8266 H   0  0  0  0  0  0  0  0  0  0  0  0
   18.8291   -3.7877   14.3735 H   0  0  0  0  0  0  0  0  0  0  0  0
   20.3746   -0.1121   13.7650 H   0  0  0  0  0  0  0  0  0  0  0  0
   18.9198    0.2690   15.8440 H   0  0  0  0  0  0  0  0  0  0  0  0
   15.0664   -1.2719   16.0083 H   0  0  0  0  0  0  0  0  0  0  0  0
   13.5748    0.0023   14.5904 H   0  0  0  0  0  0  0  0  0  0  0  0
  1  2  1  0
  2  3  2  0
  3  4  1  0
  4  5  2  0
  5  6  1  0
  6  7  1  0
  7  8  1  0
  8  9  2  0
  9 10  1  0
 10 11  1  0
 11 12  1  0
 12 13  2  0
 12 14  1  0
 14 15  1  0
 15 16  2  0
 16 17  1  0
 17 18  1  0
  5 19  1  0
 19 20  2  0
 20  2  1  0
 10  6  2  0
 18 14  2  0
  1 21  1  0
  1 22  1  0
  3 23  1  0
  4 24  1  0
  9 25  1  0
 15 26  1  0
 17 27  1  0
 18 28  1  0
 19 29  1  0
 20 30  1  0
M  END
>  <Energy>  (598) 
46.031742504901871

>  <compound_id>  (598) 
3479

>  <target_id>  (598) 
1

>  <reference_id>  (598) 
146

>  <inspiration_ids>  (598) 
[122, 146]

>  <energy_score>  (598) 
-32.65022167798219

>  <distance_score>  (598) 
1.5221351576717514

>  <path>  (598) 
/opt/xchem-fragalysis-2/maxwin/BulkDock/SCRATCH/505734/C3479-P146/C3479-P146.minimised.mol

>  <scratch_subdir>  (598) 
/opt/xchem-fragalysis-2/maxwin/BulkDock/SCRATCH/505734/C3479-P146

>  <fragmenstein_runtime>  (598) 
2.162972927093506

>  <fragmenstein_outcome>  (598) 
too moved

>  <fragmenstein_mode>  (598) 
expansion

>  <fragmenstein_error>  (598) 


$$$$
C3589-P123
     RDKit          3D

 47 49  0  0  0  0  0  0  0  0999 V2000
  -15.8360  -21.8993   33.8993 C   0  0  0  0  0  0  0  0  0  0  0  0
  -14.3260  -21.9848   33.9779 C   0  0  0  0  0  0  0  0  0  0  0  0
  -13.7056  -21.1926   34.6366 O   0  0  0  0  0  0  0  0  0  0  0  0
  -13.8816  -23.0777   33.1867 N   0  0  0  0  0  0  0  0  0  0  0  0
  -13.6341  -22.6219   31.7538 C   0  0  0  0  0  0  0  0  0  0  0  0
  -13.1630  -23.7044   30.7473 C   0  0  0  0  0  0  0  0  0  0  0  0
  -13.3490  -23.5633   29.1528 C   0  0  0  0  0  0  0  0  0  0  0  0
  -12.9202  -22.7049   28.3995 O   0  0  0  0  0  0  0  0  0  0  0  0
  -13.9967  -24.5874   28.5362 O   0  0  0  0  0  0  0  0  0  0  0  0
  -12.2799  -24.4856   31.6995 C   0  0  0  0  0  0  0  0  0  0  0  0
  -11.2717  -25.0099   30.7144 C   0  0  0  0  0  0  0  0  0  0  0  0
  -11.3025  -26.3619   30.3726 C   0  0  0  0  0  0  0  0  0  0  0  0
  -11.1085  -26.7120   29.0493 C   0  0  0  0  0  0  0  0  0  0  0  0
  -10.6441  -25.7932   28.1229 C   0  0  0  0  0  0  0  0  0  0  0  0
  -10.4495  -24.4753   28.5066 C   0  0  0  0  0  0  0  0  0  0  0  0
  -10.8329  -24.0601   29.7911 C   0  0  0  0  0  0  0  0  0  0  0  0
  -11.0495  -22.5716   30.2262 C   0  0  0  0  0  0  0  0  0  0  0  0
  -10.6538  -21.6917   29.1205 N   0  0  0  0  0  0  0  0  0  0  0  0
  -10.5089  -22.3495   31.6877 C   0  0  0  0  0  0  0  0  0  0  0  0
   -9.6918  -23.3451   32.4813 C   0  0  0  0  0  0  0  0  0  0  0  0
   -8.5568  -22.8263   33.2089 C   0  0  0  0  0  0  0  0  0  0  0  0
   -8.2652  -21.3572   33.1651 C   0  0  0  0  0  0  0  0  0  0  0  0
   -9.3825  -20.4758   32.7150 C   0  0  0  0  0  0  0  0  0  0  0  0
  -10.4929  -21.0052   32.0461 C   0  0  0  0  0  0  0  0  0  0  0  0
  -12.5119  -23.6651   33.0047 C   0  0  0  0  0  0  0  0  0  0  0  0
  -16.2301  -21.5660   34.8632 H   0  0  0  0  0  0  0  0  0  0  0  0
  -16.2819  -22.8725   33.6759 H   0  0  0  0  0  0  0  0  0  0  0  0
  -16.1175  -21.1811   33.1247 H   0  0  0  0  0  0  0  0  0  0  0  0
  -14.5511  -22.1292   31.3906 H   0  0  0  0  0  0  0  0  0  0  0  0
  -13.0028  -21.7381   31.8325 H   0  0  0  0  0  0  0  0  0  0  0  0
  -13.5621  -24.6405   30.5182 H   0  0  0  0  0  0  0  0  0  0  0  0
  -13.7260  -24.4839   27.5967 H   0  0  0  0  0  0  0  0  0  0  0  0
  -12.6418  -25.4375   32.0625 H   0  0  0  0  0  0  0  0  0  0  0  0
  -11.6902  -27.1045   31.0631 H   0  0  0  0  0  0  0  0  0  0  0  0
  -11.3967  -27.7019   28.7300 H   0  0  0  0  0  0  0  0  0  0  0  0
  -10.4862  -26.1004   27.0966 H   0  0  0  0  0  0  0  0  0  0  0  0
  -10.1257  -23.7534   27.7652 H   0  0  0  0  0  0  0  0  0  0  0  0
  -12.0194  -22.1332   30.2869 H   0  0  0  0  0  0  0  0  0  0  0  0
  -10.8714  -20.7198   29.2886 H   0  0  0  0  0  0  0  0  0  0  0  0
  -11.2668  -21.9056   28.3228 H   0  0  0  0  0  0  0  0  0  0  0  0
   -9.7264  -24.4235   32.3833 H   0  0  0  0  0  0  0  0  0  0  0  0
   -8.1074  -23.3744   33.9789 H   0  0  0  0  0  0  0  0  0  0  0  0
   -7.4312  -20.8765   33.6382 H   0  0  0  0  0  0  0  0  0  0  0  0
   -9.3576  -19.4416   33.0348 H   0  0  0  0  0  0  0  0  0  0  0  0
  -11.3564  -20.4342   31.8593 H   0  0  0  0  0  0  0  0  0  0  0  0
  -12.4236  -24.3802   33.8365 H   0  0  0  0  0  0  0  0  0  0  0  0
  -11.8338  -22.8992   33.3519 H   0  0  0  0  0  0  0  0  0  0  0  0
  1  2  1  0
  2  3  2  0
  2  4  1  0
  4  5  1  0
  5  6  1  0
  6  7  1  0
  7  8  2  0
  7  9  1  0
  6 10  1  0
 10 11  1  0
 11 12  2  0
 12 13  1  0
 13 14  2  0
 14 15  1  0
 15 16  2  0
 16 17  1  0
 17 18  1  0
 17 19  1  0
 19 20  2  0
 20 21  1  0
 21 22  2  0
 22 23  1  0
 23 24  2  0
 10 25  1  0
 25  4  1  0
 16 11  1  0
 24 19  1  0
  1 26  1  0
  1 27  1  0
  1 28  1  0
  5 29  1  0
  5 30  1  0
  6 31  1  0
  9 32  1  0
 10 33  1  0
 12 34  1  0
 13 35  1  0
 14 36  1  0
 15 37  1  0
 17 38  1  0
 18 39  1  0
 18 40  1  0
 20 41  1  0
 21 42  1  0
 22 43  1  0
 23 44  1  0
 24 45  1  0
 25 46  1  0
 25 47  1  0
M  END
>  <Energy>  (599) 
307.70420908875479

>  <compound_id>  (599) 
3589

>  <target_id>  (599) 
1

>  <reference_id>  (599) 
123

>  <inspiration_ids>  (599) 
[123, 3]

>  <energy_score>  (599) 
246.76734607161035

>  <distance_score>  (599) 
1.7767168042741137

>  <path>  (599) 
/opt/xchem-fragalysis-2/maxwin/BulkDock/SCRATCH/505734/C3589-P123/C3589-P123.minimised.mol

>  <scratch_subdir>  (599) 
/opt/xchem-fragalysis-2/maxwin/BulkDock/SCRATCH/505734/C3589-P123

>  <fragmenstein_runtime>  (599) 
11.979236125946045

>  <fragmenstein_outcome>  (599) 
too moved

>  <fragmenstein_mode>  (599) 
expansion

>  <fragmenstein_error>  (599) 


$$$$
C3589-P3
     RDKit          3D

 47 49  0  0  0  0  0  0  0  0999 V2000
  -15.3420  -22.2226   23.6654 C   0  0  0  0  0  0  0  0  0  0  0  0
  -14.7632  -22.3809   25.0554 C   0  0  0  0  0  0  0  0  0  0  0  0
  -13.9145  -21.6226   25.4477 O   0  0  0  0  0  0  0  0  0  0  0  0
  -15.4034  -23.4775   25.7117 N   0  0  0  0  0  0  0  0  0  0  0  0
  -14.6457  -24.7521   25.4556 C   0  0  0  0  0  0  0  0  0  0  0  0
  -13.3352  -24.7174   26.2381 C   0  0  0  0  0  0  0  0  0  0  0  0
  -12.6945  -26.0721   26.2889 C   0  0  0  0  0  0  0  0  0  0  0  0
  -13.2500  -27.0959   25.9264 O   0  0  0  0  0  0  0  0  0  0  0  0
  -11.4160  -26.0310   26.7297 O   0  0  0  0  0  0  0  0  0  0  0  0
  -13.8330  -24.1212   27.5248 C   0  0  0  0  0  0  0  0  0  0  0  0
  -13.4305  -24.8626   28.7759 C   0  0  0  0  0  0  0  0  0  0  0  0
  -14.1591  -26.0191   29.1327 C   0  0  0  0  0  0  0  0  0  0  0  0
  -13.7485  -26.8463   30.1707 C   0  0  0  0  0  0  0  0  0  0  0  0
  -12.5913  -26.5447   30.8623 C   0  0  0  0  0  0  0  0  0  0  0  0
  -11.8580  -25.4029   30.5313 C   0  0  0  0  0  0  0  0  0  0  0  0
  -12.2563  -24.5105   29.5114 C   0  0  0  0  0  0  0  0  0  0  0  0
  -11.4835  -23.1878   29.2625 C   0  0  0  0  0  0  0  0  0  0  0  0
  -10.8785  -23.1489   27.9312 N   0  0  0  0  0  0  0  0  0  0  0  0
  -10.6034  -22.6374   30.3949 C   0  0  0  0  0  0  0  0  0  0  0  0
   -9.4737  -23.2996   30.8914 C   0  0  0  0  0  0  0  0  0  0  0  0
   -8.8173  -22.8638   32.0443 C   0  0  0  0  0  0  0  0  0  0  0  0
   -9.2645  -21.7405   32.7242 C   0  0  0  0  0  0  0  0  0  0  0  0
  -10.3413  -21.0233   32.2241 C   0  0  0  0  0  0  0  0  0  0  0  0
  -10.9786  -21.4480   31.0537 C   0  0  0  0  0  0  0  0  0  0  0  0
  -15.3049  -23.9683   27.1351 C   0  0  0  0  0  0  0  0  0  0  0  0
  -14.5543  -22.4038   22.9291 H   0  0  0  0  0  0  0  0  0  0  0  0
  -15.7253  -21.2045   23.5540 H   0  0  0  0  0  0  0  0  0  0  0  0
  -16.1636  -22.9208   23.4808 H   0  0  0  0  0  0  0  0  0  0  0  0
  -15.2789  -25.6433   25.6049 H   0  0  0  0  0  0  0  0  0  0  0  0
  -14.4081  -24.7790   24.3827 H   0  0  0  0  0  0  0  0  0  0  0  0
  -12.6377  -24.0229   25.7573 H   0  0  0  0  0  0  0  0  0  0  0  0
  -11.1409  -25.1418   27.0609 H   0  0  0  0  0  0  0  0  0  0  0  0
  -13.4675  -23.0960   27.5872 H   0  0  0  0  0  0  0  0  0  0  0  0
  -15.0345  -26.3349   28.5686 H   0  0  0  0  0  0  0  0  0  0  0  0
  -14.3138  -27.7432   30.4109 H   0  0  0  0  0  0  0  0  0  0  0  0
  -12.2519  -27.1973   31.6633 H   0  0  0  0  0  0  0  0  0  0  0  0
  -10.9791  -25.2204   31.1389 H   0  0  0  0  0  0  0  0  0  0  0  0
  -12.2448  -22.4217   29.1773 H   0  0  0  0  0  0  0  0  0  0  0  0
  -10.0732  -22.5204   27.9902 H   0  0  0  0  0  0  0  0  0  0  0  0
  -11.4920  -22.6185   27.3055 H   0  0  0  0  0  0  0  0  0  0  0  0
   -9.1129  -24.2180   30.4455 H   0  0  0  0  0  0  0  0  0  0  0  0
   -7.9777  -23.4352   32.4344 H   0  0  0  0  0  0  0  0  0  0  0  0
   -8.7719  -21.4330   33.6393 H   0  0  0  0  0  0  0  0  0  0  0  0
  -10.7069  -20.1447   32.7508 H   0  0  0  0  0  0  0  0  0  0  0  0
  -11.8204  -20.8518   30.7089 H   0  0  0  0  0  0  0  0  0  0  0  0
  -15.9658  -24.8303   27.3135 H   0  0  0  0  0  0  0  0  0  0  0  0
  -15.7479  -23.1701   27.7420 H   0  0  0  0  0  0  0  0  0  0  0  0
  1  2  1  0
  2  3  2  0
  2  4  1  0
  4  5  1  0
  5  6  1  0
  6  7  1  0
  7  8  2  0
  7  9  1  0
  6 10  1  0
 10 11  1  0
 11 12  2  0
 12 13  1  0
 13 14  2  0
 14 15  1  0
 15 16  2  0
 16 17  1  0
 17 18  1  0
 17 19  1  0
 19 20  2  0
 20 21  1  0
 21 22  2  0
 22 23  1  0
 23 24  2  0
 10 25  1  0
 25  4  1  0
 16 11  1  0
 24 19  1  0
  1 26  1  0
  1 27  1  0
  1 28  1  0
  5 29  1  0
  5 30  1  0
  6 31  1  0
  9 32  1  0
 10 33  1  0
 12 34  1  0
 13 35  1  0
 14 36  1  0
 15 37  1  0
 17 38  1  0
 18 39  1  0
 18 40  1  0
 20 41  1  0
 21 42  1  0
 22 43  1  0
 23 44  1  0
 24 45  1  0
 25 46  1  0
 25 47  1  0
M  END
>  <Energy>  (600) 
79.195633683233538

>  <compound_id>  (600) 
3589

>  <target_id>  (600) 
1

>  <reference_id>  (600) 
3

>  <inspiration_ids>  (600) 
[123, 3]

>  <energy_score>  (600) 
18.25877066608399

>  <distance_score>  (600) 
4.581371310188382

>  <path>  (600) 
/opt/xchem-fragalysis-2/maxwin/BulkDock/SCRATCH/505734/C3589-P3/C3589-P3.minimised.mol

>  <scratch_subdir>  (600) 
/opt/xchem-fragalysis-2/maxwin/BulkDock/SCRATCH/505734/C3589-P3

>  <fragmenstein_runtime>  (600) 
14.003803968429565

>  <fragmenstein_outcome>  (600) 
too moved

>  <fragmenstein_mode>  (600) 
expansion

>  <fragmenstein_error>  (600) 


$$$$
C3593-P123
     RDKit          3D

 40 41  0  0  0  0  0  0  0  0999 V2000
   -9.5025  -25.0640   32.7511 C   0  0  0  0  0  0  0  0  0  0  0  0
  -10.7717  -25.6486   32.2103 C   0  0  0  0  0  0  0  0  0  0  0  0
  -10.9553  -26.8626   32.0953 O   0  0  0  0  0  0  0  0  0  0  0  0
  -11.7672  -24.6989   31.6014 C   0  0  0  0  0  0  0  0  0  0  0  0
  -11.3240  -24.5290   30.1504 C   0  0  0  0  0  0  0  0  0  0  0  0
  -11.5236  -25.6002   29.0840 C   0  0  0  0  0  0  0  0  0  0  0  0
  -11.1402  -25.3233   27.7629 C   0  0  0  0  0  0  0  0  0  0  0  0
  -11.6712  -26.0421   26.6958 C   0  0  0  0  0  0  0  0  0  0  0  0
  -12.5076  -27.1167   26.9458 C   0  0  0  0  0  0  0  0  0  0  0  0
  -12.7075  -27.5426   28.2486 C   0  0  0  0  0  0  0  0  0  0  0  0
  -12.1989  -26.7945   29.3086 C   0  0  0  0  0  0  0  0  0  0  0  0
  -12.2862  -23.4255   29.9174 C   0  0  0  0  0  0  0  0  0  0  0  0
  -11.9356  -22.4142   28.8412 C   0  0  0  0  0  0  0  0  0  0  0  0
  -10.5824  -22.3008   28.6025 O   0  0  0  0  0  0  0  0  0  0  0  0
  -12.5426  -22.7414   27.6366 O   0  0  0  0  0  0  0  0  0  0  0  0
  -12.3681  -21.1535   29.2446 O   0  0  0  0  0  0  0  0  0  0  0  0
  -12.3353  -22.8204   31.2946 C   0  0  0  0  0  0  0  0  0  0  0  0
  -11.9633  -23.5102   32.5602 N   0  0  0  0  0  0  0  0  0  0  0  0
  -12.9701  -23.2712   33.5676 C   0  0  0  0  0  0  0  0  0  0  0  0
  -12.7655  -21.9715   34.2889 C   0  0  0  0  0  0  0  0  0  0  0  0
  -13.9583  -23.8958   33.8501 O   0  0  0  0  0  0  0  0  0  0  0  0
   -9.4850  -23.9796   32.6513 H   0  0  0  0  0  0  0  0  0  0  0  0
   -9.4175  -25.3098   33.8073 H   0  0  0  0  0  0  0  0  0  0  0  0
   -8.6612  -25.4578   32.1790 H   0  0  0  0  0  0  0  0  0  0  0  0
  -12.6857  -25.2551   31.6480 H   0  0  0  0  0  0  0  0  0  0  0  0
  -10.2706  -24.2800   30.1273 H   0  0  0  0  0  0  0  0  0  0  0  0
  -10.5086  -24.4679   27.5338 H   0  0  0  0  0  0  0  0  0  0  0  0
  -11.4633  -25.7307   25.6769 H   0  0  0  0  0  0  0  0  0  0  0  0
  -13.0024  -27.6355   26.1356 H   0  0  0  0  0  0  0  0  0  0  0  0
  -13.2979  -28.4333   28.4461 H   0  0  0  0  0  0  0  0  0  0  0  0
  -12.4105  -27.1332   30.3150 H   0  0  0  0  0  0  0  0  0  0  0  0
  -13.2880  -23.8192   29.6997 H   0  0  0  0  0  0  0  0  0  0  0  0
  -10.5238  -21.5127   28.0347 H   0  0  0  0  0  0  0  0  0  0  0  0
  -12.8729  -23.6515   27.6737 H   0  0  0  0  0  0  0  0  0  0  0  0
  -12.1134  -20.5651   28.5106 H   0  0  0  0  0  0  0  0  0  0  0  0
  -13.3172  -22.3421   31.4286 H   0  0  0  0  0  0  0  0  0  0  0  0
  -11.6302  -21.9739   31.3250 H   0  0  0  0  0  0  0  0  0  0  0  0
  -13.7385  -21.4789   34.3967 H   0  0  0  0  0  0  0  0  0  0  0  0
  -12.3784  -22.1750   35.2831 H   0  0  0  0  0  0  0  0  0  0  0  0
  -12.1408  -21.2830   33.7205 H   0  0  0  0  0  0  0  0  0  0  0  0
  1  2  1  0
  2  3  2  0
  2  4  1  0
  4  5  1  0
  5  6  1  0
  6  7  2  0
  7  8  1  0
  8  9  2  0
  9 10  1  0
 10 11  2  0
  5 12  1  0
 12 13  1  0
 13 14  1  0
 13 15  1  0
 13 16  1  0
 12 17  1  0
 17 18  1  0
 18 19  1  0
 19 20  1  0
 19 21  2  0
 18  4  1  0
 11  6  1  0
  1 22  1  0
  1 23  1  0
  1 24  1  0
  4 25  1  0
  5 26  1  0
  7 27  1  0
  8 28  1  0
  9 29  1  0
 10 30  1  0
 11 31  1  0
 12 32  1  0
 14 33  1  0
 15 34  1  0
 16 35  1  0
 17 36  1  0
 17 37  1  0
 20 38  1  0
 20 39  1  0
 20 40  1  0
M  END
>  <Energy>  (601) 
20.803450650026573

>  <compound_id>  (601) 
3593

>  <target_id>  (601) 
1

>  <reference_id>  (601) 
123

>  <inspiration_ids>  (601) 
[123, 38]

>  <energy_score>  (601) 
38.201138033223714

>  <distance_score>  (601) 
2.403016594652652

>  <path>  (601) 
/opt/xchem-fragalysis-2/maxwin/BulkDock/SCRATCH/505734/C3593-P123/C3593-P123.minimised.mol

>  <scratch_subdir>  (601) 
/opt/xchem-fragalysis-2/maxwin/BulkDock/SCRATCH/505734/C3593-P123

>  <fragmenstein_runtime>  (601) 
14.107231616973877

>  <fragmenstein_outcome>  (601) 
too moved

>  <fragmenstein_mode>  (601) 
expansion

>  <fragmenstein_error>  (601) 


$$$$
C3593-P38
     RDKit          3D

 40 41  0  0  0  0  0  0  0  0999 V2000
  -10.5036  -25.5969   33.7220 C   0  0  0  0  0  0  0  0  0  0  0  0
  -10.3511  -24.9929   32.3760 C   0  0  0  0  0  0  0  0  0  0  0  0
   -9.2370  -24.9351   31.8530 O   0  0  0  0  0  0  0  0  0  0  0  0
  -11.6177  -24.4251   31.7272 C   0  0  0  0  0  0  0  0  0  0  0  0
  -11.4430  -24.4456   30.2195 C   0  0  0  0  0  0  0  0  0  0  0  0
  -12.0413  -25.4350   29.2513 C   0  0  0  0  0  0  0  0  0  0  0  0
  -13.4026  -25.3828   28.9313 C   0  0  0  0  0  0  0  0  0  0  0  0
  -13.8593  -25.8201   27.6969 C   0  0  0  0  0  0  0  0  0  0  0  0
  -12.9430  -26.2672   26.7623 C   0  0  0  0  0  0  0  0  0  0  0  0
  -11.6100  -26.4619   27.1118 C   0  0  0  0  0  0  0  0  0  0  0  0
  -11.1631  -26.0877   28.3716 C   0  0  0  0  0  0  0  0  0  0  0  0
  -11.9917  -23.0985   29.9928 C   0  0  0  0  0  0  0  0  0  0  0  0
  -11.5611  -22.4739   28.6926 C   0  0  0  0  0  0  0  0  0  0  0  0
  -12.3400  -22.9385   27.6424 O   0  0  0  0  0  0  0  0  0  0  0  0
  -10.2779  -22.7469   28.2754 O   0  0  0  0  0  0  0  0  0  0  0  0
  -11.7258  -21.1106   28.8628 O   0  0  0  0  0  0  0  0  0  0  0  0
  -11.4521  -22.4928   31.2496 C   0  0  0  0  0  0  0  0  0  0  0  0
  -11.8951  -23.1025   32.5218 N   0  0  0  0  0  0  0  0  0  0  0  0
  -13.1180  -22.5113   32.9447 C   0  0  0  0  0  0  0  0  0  0  0  0
  -12.7889  -21.2467   33.7032 C   0  0  0  0  0  0  0  0  0  0  0  0
  -14.2524  -22.8253   32.7250 O   0  0  0  0  0  0  0  0  0  0  0  0
   -9.5440  -25.5319   34.2339 H   0  0  0  0  0  0  0  0  0  0  0  0
  -11.2447  -25.0486   34.2962 H   0  0  0  0  0  0  0  0  0  0  0  0
  -10.8125  -26.6305   33.6251 H   0  0  0  0  0  0  0  0  0  0  0  0
  -12.4499  -25.0701   31.9733 H   0  0  0  0  0  0  0  0  0  0  0  0
  -10.3761  -24.4654   29.9897 H   0  0  0  0  0  0  0  0  0  0  0  0
  -14.1034  -24.8535   29.5744 H   0  0  0  0  0  0  0  0  0  0  0  0
  -14.9038  -25.7044   27.4244 H   0  0  0  0  0  0  0  0  0  0  0  0
  -13.2752  -26.4776   25.7512 H   0  0  0  0  0  0  0  0  0  0  0  0
  -10.9171  -26.8629   26.3782 H   0  0  0  0  0  0  0  0  0  0  0  0
  -10.1002  -26.1681   28.5963 H   0  0  0  0  0  0  0  0  0  0  0  0
  -13.0857  -23.0543   30.0664 H   0  0  0  0  0  0  0  0  0  0  0  0
  -12.1405  -22.3846   26.8656 H   0  0  0  0  0  0  0  0  0  0  0  0
  -10.4034  -23.5347   27.7142 H   0  0  0  0  0  0  0  0  0  0  0  0
  -11.0278  -20.7136   28.3099 H   0  0  0  0  0  0  0  0  0  0  0  0
  -11.7842  -21.4520   31.2611 H   0  0  0  0  0  0  0  0  0  0  0  0
  -10.3843  -22.3780   31.3554 H   0  0  0  0  0  0  0  0  0  0  0  0
  -12.2186  -21.4843   34.5905 H   0  0  0  0  0  0  0  0  0  0  0  0
  -13.7071  -20.7235   33.9810 H   0  0  0  0  0  0  0  0  0  0  0  0
  -12.1513  -20.5838   33.1234 H   0  0  0  0  0  0  0  0  0  0  0  0
  1  2  1  0
  2  3  2  0
  2  4  1  0
  4  5  1  0
  5  6  1  0
  6  7  2  0
  7  8  1  0
  8  9  2  0
  9 10  1  0
 10 11  2  0
  5 12  1  0
 12 13  1  0
 13 14  1  0
 13 15  1  0
 13 16  1  0
 12 17  1  0
 17 18  1  0
 18 19  1  0
 19 20  1  0
 19 21  2  0
 18  4  1  0
 11  6  1  0
  1 22  1  0
  1 23  1  0
  1 24  1  0
  4 25  1  0
  5 26  1  0
  7 27  1  0
  8 28  1  0
  9 29  1  0
 10 30  1  0
 11 31  1  0
 12 32  1  0
 14 33  1  0
 15 34  1  0
 16 35  1  0
 17 36  1  0
 17 37  1  0
 20 38  1  0
 20 39  1  0
 20 40  1  0
M  END
>  <Energy>  (602) 
23.528611427054177

>  <compound_id>  (602) 
3593

>  <target_id>  (602) 
1

>  <reference_id>  (602) 
38

>  <inspiration_ids>  (602) 
[123, 38]

>  <energy_score>  (602) 
40.926298810250145

>  <distance_score>  (602) 
2.3575979444950717

>  <path>  (602) 
/opt/xchem-fragalysis-2/maxwin/BulkDock/SCRATCH/505734/C3593-P38/C3593-P38.minimised.mol

>  <scratch_subdir>  (602) 
/opt/xchem-fragalysis-2/maxwin/BulkDock/SCRATCH/505734/C3593-P38

>  <fragmenstein_runtime>  (602) 
13.584798574447632

>  <fragmenstein_outcome>  (602) 
too moved

>  <fragmenstein_mode>  (602) 
expansion

>  <fragmenstein_error>  (602) 


$$$$
C3594-P123
     RDKit          3D

 44 46  0  0  0  0  0  0  0  0999 V2000
   -9.5529  -27.1449   31.0025 C   0  0  0  0  0  0  0  0  0  0  0  0
  -10.7559  -26.8209   31.7476 C   0  0  0  0  0  0  0  0  0  0  0  0
  -11.5844  -27.5789   32.0230 O   0  0  0  0  0  0  0  0  0  0  0  0
  -10.5491  -25.3536   32.1073 N   0  0  0  0  0  0  0  0  0  0  0  0
  -11.8622  -24.2267   33.0914 C   0  0  0  0  0  0  0  0  0  0  0  0
  -12.1595  -22.8391   32.4855 C   0  0  0  0  0  0  0  0  0  0  0  0
  -13.5450  -22.3599   32.9288 C   0  0  0  0  0  0  0  0  0  0  0  0
  -14.1579  -21.4735   32.3461 O   0  0  0  0  0  0  0  0  0  0  0  0
  -14.0693  -22.8629   34.0633 O   0  0  0  0  0  0  0  0  0  0  0  0
  -11.5197  -23.6645   31.4672 C   0  0  0  0  0  0  0  0  0  0  0  0
  -12.2883  -24.1332   30.1719 C   0  0  0  0  0  0  0  0  0  0  0  0
  -13.0549  -22.9069   29.7393 C   0  0  0  0  0  0  0  0  0  0  0  0
  -12.0922  -21.8114   29.3385 C   0  0  0  0  0  0  0  0  0  0  0  0
  -11.3049  -22.2007   28.1231 C   0  0  0  0  0  0  0  0  0  0  0  0
  -10.8292  -23.6143   28.0291 C   0  0  0  0  0  0  0  0  0  0  0  0
  -11.6989  -24.6115   28.7507 C   0  0  0  0  0  0  0  0  0  0  0  0
  -10.9192  -25.8836   28.7092 C   0  0  0  0  0  0  0  0  0  0  0  0
  -12.0220  -26.8781   28.7234 C   0  0  0  0  0  0  0  0  0  0  0  0
  -13.0919  -26.4600   28.1451 N   0  0  0  0  0  0  0  0  0  0  0  0
  -12.8251  -25.1478   27.8392 C   0  0  0  0  0  0  0  0  0  0  0  0
  -13.3617  -24.5346   26.9349 O   0  0  0  0  0  0  0  0  0  0  0  0
  -11.1248  -24.5509   32.8728 C   0  0  0  0  0  0  0  0  0  0  0  0
   -8.9874  -27.9433   31.4654 H   0  0  0  0  0  0  0  0  0  0  0  0
   -9.7649  -27.4592   30.0010 H   0  0  0  0  0  0  0  0  0  0  0  0
   -8.9667  -26.2230   31.0234 H   0  0  0  0  0  0  0  0  0  0  0  0
  -12.8857  -24.8078   32.9833 H   0  0  0  0  0  0  0  0  0  0  0  0
  -11.8727  -24.1367   34.3620 H   0  0  0  0  0  0  0  0  0  0  0  0
  -11.4843  -22.0467   32.7923 H   0  0  0  0  0  0  0  0  0  0  0  0
  -13.6092  -23.5214   34.6164 H   0  0  0  0  0  0  0  0  0  0  0  0
  -10.6064  -23.1889   31.1484 H   0  0  0  0  0  0  0  0  0  0  0  0
  -12.9332  -24.9302   30.4912 H   0  0  0  0  0  0  0  0  0  0  0  0
  -13.7265  -22.5333   30.4925 H   0  0  0  0  0  0  0  0  0  0  0  0
  -13.7096  -23.1885   28.9190 H   0  0  0  0  0  0  0  0  0  0  0  0
  -11.4119  -21.5388   30.1491 H   0  0  0  0  0  0  0  0  0  0  0  0
  -12.6181  -20.8860   29.1296 H   0  0  0  0  0  0  0  0  0  0  0  0
  -10.4135  -21.5893   28.1273 H   0  0  0  0  0  0  0  0  0  0  0  0
  -11.8698  -21.9748   27.2196 H   0  0  0  0  0  0  0  0  0  0  0  0
   -9.8066  -23.6714   28.4102 H   0  0  0  0  0  0  0  0  0  0  0  0
  -10.7377  -23.8794   26.9665 H   0  0  0  0  0  0  0  0  0  0  0  0
  -10.3578  -26.0588   27.7816 H   0  0  0  0  0  0  0  0  0  0  0  0
  -10.2051  -25.7812   29.4881 H   0  0  0  0  0  0  0  0  0  0  0  0
  -11.9038  -27.8905   29.1151 H   0  0  0  0  0  0  0  0  0  0  0  0
  -11.0515  -25.6083   33.6201 H   0  0  0  0  0  0  0  0  0  0  0  0
  -10.0789  -24.0313   33.2195 H   0  0  0  0  0  0  0  0  0  0  0  0
  1  2  1  0
  2  3  2  0
  2  4  1  0
  4  5  1  0
  5  6  1  0
  6  7  1  0
  7  8  2  0
  7  9  1  0
  6 10  1  0
 10 11  1  0
 11 12  1  0
 12 13  1  0
 13 14  1  0
 14 15  1  0
 15 16  1  0
 16 17  1  0
 17 18  1  0
 18 19  2  0
 19 20  1  0
 20 21  2  0
 10 22  1  0
 22  4  1  0
 16 11  1  0
 20 16  1  0
  1 23  1  0
  1 24  1  0
  1 25  1  0
  5 26  1  0
  5 27  1  0
  6 28  1  0
  9 29  1  0
 10 30  1  0
 11 31  1  0
 12 32  1  0
 12 33  1  0
 13 34  1  0
 13 35  1  0
 14 36  1  0
 14 37  1  0
 15 38  1  0
 15 39  1  0
 17 40  1  0
 17 41  1  0
 18 42  1  0
 22 43  1  0
 22 44  1  0
M  END
>  <Energy>  (603) 
871.71018859613525

>  <compound_id>  (603) 
3594

>  <target_id>  (603) 
1

>  <reference_id>  (603) 
123

>  <inspiration_ids>  (603) 
[123, 39]

>  <energy_score>  (603) 
831.5462548518851

>  <distance_score>  (603) 
1.9787742091866207

>  <path>  (603) 
/opt/xchem-fragalysis-2/maxwin/BulkDock/SCRATCH/505734/C3594-P123/C3594-P123.minimised.mol

>  <scratch_subdir>  (603) 
/opt/xchem-fragalysis-2/maxwin/BulkDock/SCRATCH/505734/C3594-P123

>  <fragmenstein_runtime>  (603) 
9.842575788497925

>  <fragmenstein_outcome>  (603) 
too moved

>  <fragmenstein_mode>  (603) 
expansion

>  <fragmenstein_error>  (603) 


$$$$
C3594-P39
     RDKit          3D

 44 46  0  0  0  0  0  0  0  0999 V2000
  -11.0548  -26.6770   26.6255 C   0  0  0  0  0  0  0  0  0  0  0  0
  -11.6526  -26.0116   27.8072 C   0  0  0  0  0  0  0  0  0  0  0  0
  -12.3861  -25.1408   27.7811 O   0  0  0  0  0  0  0  0  0  0  0  0
  -10.8810  -26.8072   29.0432 N   0  0  0  0  0  0  0  0  0  0  0  0
  -10.6901  -26.6149   30.8899 C   0  0  0  0  0  0  0  0  0  0  0  0
   -9.8711  -25.3150   31.2442 C   0  0  0  0  0  0  0  0  0  0  0  0
   -9.3023  -25.4684   32.5934 C   0  0  0  0  0  0  0  0  0  0  0  0
   -9.8568  -25.5664   33.6685 O   0  0  0  0  0  0  0  0  0  0  0  0
   -7.9895  -25.5808   32.4316 O   0  0  0  0  0  0  0  0  0  0  0  0
  -11.1247  -24.8327   30.8151 C   0  0  0  0  0  0  0  0  0  0  0  0
  -12.1827  -24.1988   31.7549 C   0  0  0  0  0  0  0  0  0  0  0  0
  -11.7554  -23.7632   33.1542 C   0  0  0  0  0  0  0  0  0  0  0  0
  -12.6205  -22.7093   33.8371 C   0  0  0  0  0  0  0  0  0  0  0  0
  -14.0333  -22.7382   33.3244 C   0  0  0  0  0  0  0  0  0  0  0  0
  -13.9955  -22.3386   31.8645 C   0  0  0  0  0  0  0  0  0  0  0  0
  -12.8478  -22.9930   31.0554 C   0  0  0  0  0  0  0  0  0  0  0  0
  -13.2972  -23.4208   29.6813 C   0  0  0  0  0  0  0  0  0  0  0  0
  -12.3732  -22.6710   28.7778 C   0  0  0  0  0  0  0  0  0  0  0  0
  -11.5895  -21.8348   29.3559 N   0  0  0  0  0  0  0  0  0  0  0  0
  -11.7715  -21.9595   30.7078 C   0  0  0  0  0  0  0  0  0  0  0  0
  -11.1040  -21.3558   31.5323 O   0  0  0  0  0  0  0  0  0  0  0  0
  -11.2023  -26.5204   30.4062 C   0  0  0  0  0  0  0  0  0  0  0  0
  -11.3031  -27.7202   26.6836 H   0  0  0  0  0  0  0  0  0  0  0  0
  -11.4156  -26.2343   25.6957 H   0  0  0  0  0  0  0  0  0  0  0  0
   -9.9785  -26.5942   26.7019 H   0  0  0  0  0  0  0  0  0  0  0  0
  -10.8728  -27.4819   31.8166 H   0  0  0  0  0  0  0  0  0  0  0  0
   -9.6251  -27.2669   30.8400 H   0  0  0  0  0  0  0  0  0  0  0  0
   -9.0862  -25.1468   30.4971 H   0  0  0  0  0  0  0  0  0  0  0  0
   -7.6599  -26.1324   33.1624 H   0  0  0  0  0  0  0  0  0  0  0  0
  -10.9719  -24.2843   29.8854 H   0  0  0  0  0  0  0  0  0  0  0  0
  -12.9486  -24.9546   31.8984 H   0  0  0  0  0  0  0  0  0  0  0  0
  -10.7345  -23.3828   33.1199 H   0  0  0  0  0  0  0  0  0  0  0  0
  -11.8059  -24.6391   33.8049 H   0  0  0  0  0  0  0  0  0  0  0  0
  -12.5977  -22.8681   34.9107 H   0  0  0  0  0  0  0  0  0  0  0  0
  -12.2063  -21.7068   33.6891 H   0  0  0  0  0  0  0  0  0  0  0  0
  -14.6587  -22.0358   33.8872 H   0  0  0  0  0  0  0  0  0  0  0  0
  -14.4718  -23.7283   33.4609 H   0  0  0  0  0  0  0  0  0  0  0  0
  -13.8831  -21.2626   31.8779 H   0  0  0  0  0  0  0  0  0  0  0  0
  -14.9801  -22.4857   31.4218 H   0  0  0  0  0  0  0  0  0  0  0  0
  -13.2639  -24.4868   29.5468 H   0  0  0  0  0  0  0  0  0  0  0  0
  -14.3307  -23.2201   29.4873 H   0  0  0  0  0  0  0  0  0  0  0  0
  -12.3992  -22.8090   27.6889 H   0  0  0  0  0  0  0  0  0  0  0  0
  -12.2570  -26.1165   29.9986 H   0  0  0  0  0  0  0  0  0  0  0  0
  -12.2206  -27.3393   30.6780 H   0  0  0  0  0  0  0  0  0  0  0  0
  1  2  1  0
  2  3  2  0
  2  4  1  0
  4  5  1  0
  5  6  1  0
  6  7  1  0
  7  8  2  0
  7  9  1  0
  6 10  1  0
 10 11  1  0
 11 12  1  0
 12 13  1  0
 13 14  1  0
 14 15  1  0
 15 16  1  0
 16 17  1  0
 17 18  1  0
 18 19  2  0
 19 20  1  0
 20 21  2  0
 10 22  1  0
 22  4  1  0
 16 11  1  0
 20 16  1  0
  1 23  1  0
  1 24  1  0
  1 25  1  0
  5 26  1  0
  5 27  1  0
  6 28  1  0
  9 29  1  0
 10 30  1  0
 11 31  1  0
 12 32  1  0
 12 33  1  0
 13 34  1  0
 13 35  1  0
 14 36  1  0
 14 37  1  0
 15 38  1  0
 15 39  1  0
 17 40  1  0
 17 41  1  0
 18 42  1  0
 22 43  1  0
 22 44  1  0
M  END
>  <Energy>  (604) 
729.10654881402161

>  <compound_id>  (604) 
3594

>  <target_id>  (604) 
1

>  <reference_id>  (604) 
39

>  <inspiration_ids>  (604) 
[123, 39]

>  <energy_score>  (604) 
688.9426150697561

>  <distance_score>  (604) 
3.219054369527871

>  <path>  (604) 
/opt/xchem-fragalysis-2/maxwin/BulkDock/SCRATCH/505734/C3594-P39/C3594-P39.minimised.mol

>  <scratch_subdir>  (604) 
/opt/xchem-fragalysis-2/maxwin/BulkDock/SCRATCH/505734/C3594-P39

>  <fragmenstein_runtime>  (604) 
10.19067096710205

>  <fragmenstein_outcome>  (604) 
too moved

>  <fragmenstein_mode>  (604) 
expansion

>  <fragmenstein_error>  (604) 


$$$$
C3597-P123
     RDKit          3D

 55 58  0  0  0  0  0  0  0  0999 V2000
  -10.4335  -26.1263   28.9348 C   0  0  0  0  0  0  0  0  0  0  0  0
  -11.4771  -26.3777   30.0109 C   0  0  0  0  0  0  0  0  0  0  0  0
  -11.1038  -25.9105   31.4244 C   0  0  0  0  0  0  0  0  0  0  0  0
  -10.6223  -24.4644   31.5154 C   0  0  0  0  0  0  0  0  0  0  0  0
  -11.1407  -23.4778   32.5979 C   0  0  0  0  0  0  0  0  0  0  0  0
  -12.1453  -24.0196   33.5816 C   0  0  0  0  0  0  0  0  0  0  0  0
  -12.8141  -22.8638   34.3142 C   0  0  0  0  0  0  0  0  0  0  0  0
  -12.9323  -21.6519   33.3741 C   0  0  0  0  0  0  0  0  0  0  0  0
  -13.8426  -20.5299   34.2049 C   0  0  0  0  0  0  0  0  0  0  0  0
  -13.6115  -19.1287   34.8734 C   0  0  0  0  0  0  0  0  0  0  0  0
  -12.1635  -18.7520   34.8633 C   0  0  0  0  0  0  0  0  0  0  0  0
  -14.1769  -18.7683   36.2723 C   0  0  0  0  0  0  0  0  0  0  0  0
  -14.2178  -17.2481   36.3550 C   0  0  0  0  0  0  0  0  0  0  0  0
  -14.3761  -16.8305   34.9205 C   0  0  0  0  0  0  0  0  0  0  0  0
  -14.4572  -18.1020   34.1779 N   0  0  0  0  0  0  0  0  0  0  0  0
  -15.1507  -20.8624   34.0870 C   0  0  0  0  0  0  0  0  0  0  0  0
  -15.2877  -21.6619   32.8852 C   0  0  0  0  0  0  0  0  0  0  0  0
  -16.3658  -21.8587   32.3641 O   0  0  0  0  0  0  0  0  0  0  0  0
  -14.0160  -21.8889   32.4504 N   0  0  0  0  0  0  0  0  0  0  0  0
  -13.6397  -22.3766   31.1795 C   0  0  0  0  0  0  0  0  0  0  0  0
  -12.2745  -21.9509   30.8299 C   0  0  0  0  0  0  0  0  0  0  0  0
  -11.8668  -22.5365   29.4810 C   0  0  0  0  0  0  0  0  0  0  0  0
  -10.9323  -22.0900   28.8300 O   0  0  0  0  0  0  0  0  0  0  0  0
  -12.6176  -23.5296   28.9599 O   0  0  0  0  0  0  0  0  0  0  0  0
  -11.6687  -22.0108   32.2418 C   0  0  0  0  0  0  0  0  0  0  0  0
  -10.7564  -26.5764   27.9906 H   0  0  0  0  0  0  0  0  0  0  0  0
  -10.2775  -25.0631   28.7399 H   0  0  0  0  0  0  0  0  0  0  0  0
   -9.4742  -26.5606   29.2102 H   0  0  0  0  0  0  0  0  0  0  0  0
  -11.6954  -27.4499   30.0532 H   0  0  0  0  0  0  0  0  0  0  0  0
  -12.4068  -25.9013   29.7028 H   0  0  0  0  0  0  0  0  0  0  0  0
  -11.9571  -26.0937   32.0640 H   0  0  0  0  0  0  0  0  0  0  0  0
  -10.3067  -26.5648   31.7838 H   0  0  0  0  0  0  0  0  0  0  0  0
   -9.5345  -24.5417   31.6617 H   0  0  0  0  0  0  0  0  0  0  0  0
  -10.7085  -24.0317   30.5421 H   0  0  0  0  0  0  0  0  0  0  0  0
  -10.2240  -23.3657   33.1595 H   0  0  0  0  0  0  0  0  0  0  0  0
  -11.6889  -24.7358   34.2692 H   0  0  0  0  0  0  0  0  0  0  0  0
  -12.9101  -24.5445   33.0379 H   0  0  0  0  0  0  0  0  0  0  0  0
  -13.7998  -23.2194   34.6231 H   0  0  0  0  0  0  0  0  0  0  0  0
  -12.2730  -22.5871   35.2168 H   0  0  0  0  0  0  0  0  0  0  0  0
  -11.6647  -19.2062   34.0096 H   0  0  0  0  0  0  0  0  0  0  0  0
  -11.7467  -19.0809   35.8093 H   0  0  0  0  0  0  0  0  0  0  0  0
  -11.9578  -17.6796   34.8567 H   0  0  0  0  0  0  0  0  0  0  0  0
  -13.5573  -19.0913   37.0951 H   0  0  0  0  0  0  0  0  0  0  0  0
  -15.2052  -19.1189   36.4113 H   0  0  0  0  0  0  0  0  0  0  0  0
  -13.2880  -16.8499   36.7770 H   0  0  0  0  0  0  0  0  0  0  0  0
  -15.0468  -16.9098   36.9850 H   0  0  0  0  0  0  0  0  0  0  0  0
  -13.5396  -16.2170   34.5712 H   0  0  0  0  0  0  0  0  0  0  0  0
  -15.2888  -16.2446   34.7700 H   0  0  0  0  0  0  0  0  0  0  0  0
  -15.4319  -18.4096   34.2737 H   0  0  0  0  0  0  0  0  0  0  0  0
  -16.0271  -20.3799   34.4838 H   0  0  0  0  0  0  0  0  0  0  0  0
  -13.4617  -23.4320   31.3032 H   0  0  0  0  0  0  0  0  0  0  0  0
  -14.4135  -22.1537   30.4668 H   0  0  0  0  0  0  0  0  0  0  0  0
  -12.1631  -20.9335   30.5411 H   0  0  0  0  0  0  0  0  0  0  0  0
  -13.2555  -23.9760   29.5488 H   0  0  0  0  0  0  0  0  0  0  0  0
  -10.8886  -21.2497   32.2942 H   0  0  0  0  0  0  0  0  0  0  0  0
  1  2  1  0
  2  3  1  0
  3  4  1  0
  4  5  1  0
  5  6  1  0
  6  7  1  0
  7  8  1  0
  8  9  1  0
  9 10  1  0
 10 11  1  0
 10 12  1  0
 12 13  1  0
 13 14  1  0
 14 15  1  0
  9 16  2  0
 16 17  1  0
 17 18  2  0
 17 19  1  0
 19 20  1  0
 20 21  1  0
 21 22  1  0
 22 23  2  0
 22 24  1  0
 21 25  1  0
 25  5  1  0
 19  8  1  0
 25  8  1  0
 15 10  1  0
  1 26  1  0
  1 27  1  0
  1 28  1  0
  2 29  1  0
  2 30  1  0
  3 31  1  0
  3 32  1  0
  4 33  1  0
  4 34  1  0
  5 35  1  0
  6 36  1  0
  6 37  1  0
  7 38  1  0
  7 39  1  0
 11 40  1  0
 11 41  1  0
 11 42  1  0
 12 43  1  0
 12 44  1  0
 13 45  1  0
 13 46  1  0
 14 47  1  0
 14 48  1  0
 15 49  1  0
 16 50  1  0
 20 51  1  0
 20 52  1  0
 21 53  1  0
 24 54  1  0
 25 55  1  0
M  END
>  <Energy>  (605) 
99.546632183193495

>  <compound_id>  (605) 
3597

>  <target_id>  (605) 
1

>  <reference_id>  (605) 
123

>  <inspiration_ids>  (605) 
[123, 46]

>  <energy_score>  (605) 
17.537815219772256

>  <distance_score>  (605) 
3.663110224291841

>  <path>  (605) 
/opt/xchem-fragalysis-2/maxwin/BulkDock/SCRATCH/505734/C3597-P123/C3597-P123.minimised.mol

>  <scratch_subdir>  (605) 
/opt/xchem-fragalysis-2/maxwin/BulkDock/SCRATCH/505734/C3597-P123

>  <fragmenstein_runtime>  (605) 
11.081050395965576

>  <fragmenstein_outcome>  (605) 
too moved

>  <fragmenstein_mode>  (605) 
expansion

>  <fragmenstein_error>  (605) 


$$$$
C3597-P46
     RDKit          3D

 55 58  0  0  0  0  0  0  0  0999 V2000
  -15.8091  -29.2604   29.8278 C   0  0  0  0  0  0  0  0  0  0  0  0
  -15.4897  -28.1575   28.8287 C   0  0  0  0  0  0  0  0  0  0  0  0
  -14.1215  -28.3142   28.1501 C   0  0  0  0  0  0  0  0  0  0  0  0
  -12.8114  -28.3429   28.9818 C   0  0  0  0  0  0  0  0  0  0  0  0
  -11.5755  -27.3207   29.0997 C   0  0  0  0  0  0  0  0  0  0  0  0
  -11.0188  -27.2837   30.4981 C   0  0  0  0  0  0  0  0  0  0  0  0
  -11.3104  -25.8836   30.9914 C   0  0  0  0  0  0  0  0  0  0  0  0
  -11.7277  -24.9039   29.8525 C   0  0  0  0  0  0  0  0  0  0  0  0
  -11.4317  -23.4753   30.4646 C   0  0  0  0  0  0  0  0  0  0  0  0
  -11.7070  -22.8711   31.8974 C   0  0  0  0  0  0  0  0  0  0  0  0
  -10.7036  -21.7523   32.1706 C   0  0  0  0  0  0  0  0  0  0  0  0
  -11.8029  -23.7698   33.1214 C   0  0  0  0  0  0  0  0  0  0  0  0
  -12.6952  -23.0498   34.1056 C   0  0  0  0  0  0  0  0  0  0  0  0
  -13.3231  -21.8909   33.3754 C   0  0  0  0  0  0  0  0  0  0  0  0
  -13.0167  -22.1268   31.9575 N   0  0  0  0  0  0  0  0  0  0  0  0
  -11.6109  -22.5301   29.5453 C   0  0  0  0  0  0  0  0  0  0  0  0
  -12.5811  -23.1611   28.7261 C   0  0  0  0  0  0  0  0  0  0  0  0
  -12.8950  -22.6257   27.6954 O   0  0  0  0  0  0  0  0  0  0  0  0
  -12.9331  -24.4455   29.1326 N   0  0  0  0  0  0  0  0  0  0  0  0
  -13.3650  -25.1540   27.9076 C   0  0  0  0  0  0  0  0  0  0  0  0
  -12.1020  -25.7217   27.3617 C   0  0  0  0  0  0  0  0  0  0  0  0
  -11.6073  -24.8105   26.2964 C   0  0  0  0  0  0  0  0  0  0  0  0
  -11.8868  -24.8681   25.1109 O   0  0  0  0  0  0  0  0  0  0  0  0
  -10.8685  -23.8263   26.8148 O   0  0  0  0  0  0  0  0  0  0  0  0
  -11.2856  -25.8602   28.6409 C   0  0  0  0  0  0  0  0  0  0  0  0
  -15.1039  -29.2813   30.6604 H   0  0  0  0  0  0  0  0  0  0  0  0
  -16.8116  -29.1118   30.2419 H   0  0  0  0  0  0  0  0  0  0  0  0
  -15.7899  -30.2421   29.3435 H   0  0  0  0  0  0  0  0  0  0  0  0
  -15.6237  -27.1769   29.2832 H   0  0  0  0  0  0  0  0  0  0  0  0
  -16.2524  -28.2043   28.0394 H   0  0  0  0  0  0  0  0  0  0  0  0
  -14.2147  -29.3206   27.7149 H   0  0  0  0  0  0  0  0  0  0  0  0
  -14.0585  -27.6585   27.2829 H   0  0  0  0  0  0  0  0  0  0  0  0
  -13.0301  -28.7676   29.9663 H   0  0  0  0  0  0  0  0  0  0  0  0
  -12.3281  -29.1999   28.4956 H   0  0  0  0  0  0  0  0  0  0  0  0
  -10.8574  -27.8035   28.4649 H   0  0  0  0  0  0  0  0  0  0  0  0
  -11.4243  -28.0410   31.1763 H   0  0  0  0  0  0  0  0  0  0  0  0
   -9.9370  -27.4336   30.4797 H   0  0  0  0  0  0  0  0  0  0  0  0
  -11.9901  -26.0096   31.8131 H   0  0  0  0  0  0  0  0  0  0  0  0
  -10.3726  -25.5290   31.4451 H   0  0  0  0  0  0  0  0  0  0  0  0
  -11.1099  -20.9423   32.7762 H   0  0  0  0  0  0  0  0  0  0  0  0
   -9.8435  -22.1828   32.6771 H   0  0  0  0  0  0  0  0  0  0  0  0
  -10.3820  -21.2192   31.2820 H   0  0  0  0  0  0  0  0  0  0  0  0
  -10.8300  -24.0539   33.5249 H   0  0  0  0  0  0  0  0  0  0  0  0
  -12.3206  -24.6954   32.9533 H   0  0  0  0  0  0  0  0  0  0  0  0
  -13.4764  -23.7249   34.4650 H   0  0  0  0  0  0  0  0  0  0  0  0
  -12.1231  -22.7087   34.9585 H   0  0  0  0  0  0  0  0  0  0  0  0
  -12.9286  -20.9336   33.7287 H   0  0  0  0  0  0  0  0  0  0  0  0
  -14.4067  -21.8535   33.5328 H   0  0  0  0  0  0  0  0  0  0  0  0
  -13.7232  -22.8367   31.7148 H   0  0  0  0  0  0  0  0  0  0  0  0
  -11.6431  -21.4581   29.6297 H   0  0  0  0  0  0  0  0  0  0  0  0
  -14.1190  -25.8853   28.1494 H   0  0  0  0  0  0  0  0  0  0  0  0
  -13.8621  -24.5110   27.1770 H   0  0  0  0  0  0  0  0  0  0  0  0
  -12.2328  -26.6739   26.8448 H   0  0  0  0  0  0  0  0  0  0  0  0
  -11.4030  -23.0270   26.5671 H   0  0  0  0  0  0  0  0  0  0  0  0
  -10.2121  -25.7320   28.4702 H   0  0  0  0  0  0  0  0  0  0  0  0
  1  2  1  0
  2  3  1  0
  3  4  1  0
  4  5  1  0
  5  6  1  0
  6  7  1  0
  7  8  1  0
  8  9  1  0
  9 10  1  0
 10 11  1  0
 10 12  1  0
 12 13  1  0
 13 14  1  0
 14 15  1  0
  9 16  2  0
 16 17  1  0
 17 18  2  0
 17 19  1  0
 19 20  1  0
 20 21  1  0
 21 22  1  0
 22 23  2  0
 22 24  1  0
 21 25  1  0
 25  5  1  0
 19  8  1  0
 25  8  1  0
 15 10  1  0
  1 26  1  0
  1 27  1  0
  1 28  1  0
  2 29  1  0
  2 30  1  0
  3 31  1  0
  3 32  1  0
  4 33  1  0
  4 34  1  0
  5 35  1  0
  6 36  1  0
  6 37  1  0
  7 38  1  0
  7 39  1  0
 11 40  1  0
 11 41  1  0
 11 42  1  0
 12 43  1  0
 12 44  1  0
 13 45  1  0
 13 46  1  0
 14 47  1  0
 14 48  1  0
 15 49  1  0
 16 50  1  0
 20 51  1  0
 20 52  1  0
 21 53  1  0
 24 54  1  0
 25 55  1  0
M  END
>  <Energy>  (606) 
134.49936536094697

>  <compound_id>  (606) 
3597

>  <target_id>  (606) 
1

>  <reference_id>  (606) 
46

>  <inspiration_ids>  (606) 
[123, 46]

>  <energy_score>  (606) 
52.49054839752813

>  <distance_score>  (606) 
3.813901699906086

>  <path>  (606) 
/opt/xchem-fragalysis-2/maxwin/BulkDock/SCRATCH/505734/C3597-P46/C3597-P46.minimised.mol

>  <scratch_subdir>  (606) 
/opt/xchem-fragalysis-2/maxwin/BulkDock/SCRATCH/505734/C3597-P46

>  <fragmenstein_runtime>  (606) 
8.949898958206177

>  <fragmenstein_outcome>  (606) 
too moved

>  <fragmenstein_mode>  (606) 
expansion

>  <fragmenstein_error>  (606) 


$$$$
C3598-P123
     RDKit          3D

 58 60  0  0  0  0  0  0  0  0999 V2000
  -13.0824  -22.0452   32.4319 C   0  0  0  0  0  0  0  0  0  0  0  0
  -12.4152  -22.9640   33.4070 C   0  0  0  0  0  0  0  0  0  0  0  0
  -12.3518  -22.6470   34.5629 O   0  0  0  0  0  0  0  0  0  0  0  0
  -11.8787  -24.0846   32.7276 N   0  0  0  0  0  0  0  0  0  0  0  0
  -10.4794  -23.7663   32.1826 C   0  0  0  0  0  0  0  0  0  0  0  0
   -9.8370  -24.8411   31.2055 C   0  0  0  0  0  0  0  0  0  0  0  0
  -10.8663  -25.7902   30.8669 N   0  0  0  0  0  0  0  0  0  0  0  0
  -11.8726  -25.4399   29.9737 C   0  0  0  0  0  0  0  0  0  0  0  0
  -12.1973  -24.2349   29.4650 C   0  0  0  0  0  0  0  0  0  0  0  0
  -12.9173  -24.0738   28.1387 C   0  0  0  0  0  0  0  0  0  0  0  0
  -12.3083  -24.9594   27.0736 C   0  0  0  0  0  0  0  0  0  0  0  0
  -10.9824  -25.3372   27.3341 C   0  0  0  0  0  0  0  0  0  0  0  0
  -10.5155  -26.5307   26.8851 C   0  0  0  0  0  0  0  0  0  0  0  0
  -11.0993  -27.0504   25.7704 C   0  0  0  0  0  0  0  0  0  0  0  0
  -12.2603  -26.4734   25.2522 C   0  0  0  0  0  0  0  0  0  0  0  0
  -12.9628  -25.5078   25.9594 C   0  0  0  0  0  0  0  0  0  0  0  0
  -14.3443  -25.1516   25.4850 C   0  0  0  0  0  0  0  0  0  0  0  0
  -15.2981  -26.2830   25.0480 C   0  0  0  0  0  0  0  0  0  0  0  0
  -15.7801  -26.3324   23.6226 N   0  0  0  0  0  0  0  0  0  0  0  0
  -15.0910  -26.6546   22.4172 C   0  0  0  0  0  0  0  0  0  0  0  0
  -16.0815  -26.7064   21.2731 C   0  0  0  0  0  0  0  0  0  0  0  0
  -13.9279  -26.8823   22.2192 O   0  0  0  0  0  0  0  0  0  0  0  0
  -15.8217  -24.8289   23.8182 C   0  0  0  0  0  0  0  0  0  0  0  0
  -14.5423  -24.1973   24.3478 C   0  0  0  0  0  0  0  0  0  0  0  0
  -13.4396  -24.0214   23.3234 C   0  0  0  0  0  0  0  0  0  0  0  0
  -12.2424  -23.9173   23.5326 O   0  0  0  0  0  0  0  0  0  0  0  0
  -13.8964  -23.8796   22.0624 O   0  0  0  0  0  0  0  0  0  0  0  0
  -11.2805  -26.3708   32.1366 C   0  0  0  0  0  0  0  0  0  0  0  0
  -11.1626  -25.2793   33.2405 C   0  0  0  0  0  0  0  0  0  0  0  0
  -14.0137  -21.6657   32.8600 H   0  0  0  0  0  0  0  0  0  0  0  0
  -12.3808  -21.2298   32.2570 H   0  0  0  0  0  0  0  0  0  0  0  0
  -13.3039  -22.5242   31.4793 H   0  0  0  0  0  0  0  0  0  0  0  0
  -10.6438  -22.8435   31.6181 H   0  0  0  0  0  0  0  0  0  0  0  0
   -9.7503  -23.4766   32.9434 H   0  0  0  0  0  0  0  0  0  0  0  0
   -9.4128  -24.5119   30.2686 H   0  0  0  0  0  0  0  0  0  0  0  0
   -9.0049  -25.3425   31.7193 H   0  0  0  0  0  0  0  0  0  0  0  0
  -12.3254  -26.3439   29.5686 H   0  0  0  0  0  0  0  0  0  0  0  0
  -11.7439  -23.3269   29.8340 H   0  0  0  0  0  0  0  0  0  0  0  0
  -13.9679  -24.3123   28.3023 H   0  0  0  0  0  0  0  0  0  0  0  0
  -12.8210  -23.0359   27.8092 H   0  0  0  0  0  0  0  0  0  0  0  0
  -10.3634  -24.8214   28.0622 H   0  0  0  0  0  0  0  0  0  0  0  0
   -9.5947  -26.9315   27.2886 H   0  0  0  0  0  0  0  0  0  0  0  0
  -10.5508  -27.8421   25.2688 H   0  0  0  0  0  0  0  0  0  0  0  0
  -12.6485  -26.8051   24.2925 H   0  0  0  0  0  0  0  0  0  0  0  0
  -14.8490  -24.7874   26.3757 H   0  0  0  0  0  0  0  0  0  0  0  0
  -14.8339  -27.2626   25.2206 H   0  0  0  0  0  0  0  0  0  0  0  0
  -16.1971  -26.3015   25.6879 H   0  0  0  0  0  0  0  0  0  0  0  0
  -15.9939  -27.6743   20.7715 H   0  0  0  0  0  0  0  0  0  0  0  0
  -15.8540  -25.9028   20.5675 H   0  0  0  0  0  0  0  0  0  0  0  0
  -17.1133  -26.5914   21.6180 H   0  0  0  0  0  0  0  0  0  0  0  0
  -16.6950  -24.5759   24.4474 H   0  0  0  0  0  0  0  0  0  0  0  0
  -16.0854  -24.3923   22.8452 H   0  0  0  0  0  0  0  0  0  0  0  0
  -14.7644  -23.1835   24.6897 H   0  0  0  0  0  0  0  0  0  0  0  0
  -13.0725  -23.8595   21.5293 H   0  0  0  0  0  0  0  0  0  0  0  0
  -10.7620  -27.3009   32.3312 H   0  0  0  0  0  0  0  0  0  0  0  0
  -12.3027  -26.6275   31.9826 H   0  0  0  0  0  0  0  0  0  0  0  0
  -10.1460  -25.2085   33.6659 H   0  0  0  0  0  0  0  0  0  0  0  0
  -11.6895  -25.4707   34.1726 H   0  0  0  0  0  0  0  0  0  0  0  0
  1  2  1  0
  2  3  2  0
  2  4  1  0
  4  5  1  0
  5  6  1  0
  6  7  1  0
  7  8  1  0
  8  9  2  3
  9 10  1  0
 10 11  1  0
 11 12  2  0
 12 13  1  0
 13 14  2  0
 14 15  1  0
 15 16  2  0
 16 17  1  0
 17 18  1  0
 18 19  1  0
 19 20  1  0
 20 21  1  0
 20 22  2  0
 19 23  1  0
 23 24  1  0
 24 25  1  0
 25 26  2  0
 25 27  1  0
  7 28  1  0
 28 29  1  0
 29  4  1  0
 16 11  1  0
 24 17  1  0
  1 30  1  0
  1 31  1  0
  1 32  1  0
  5 33  1  0
  5 34  1  0
  6 35  1  0
  6 36  1  0
  8 37  1  0
  9 38  1  0
 10 39  1  0
 10 40  1  0
 12 41  1  0
 13 42  1  0
 14 43  1  0
 15 44  1  0
 17 45  1  0
 18 46  1  0
 18 47  1  0
 21 48  1  0
 21 49  1  0
 21 50  1  0
 23 51  1  0
 23 52  1  0
 24 53  1  0
 27 54  1  0
 28 55  1  0
 28 56  1  0
 29 57  1  0
 29 58  1  0
M  END
>  <Energy>  (607) 
249.39084034277118

>  <compound_id>  (607) 
3598

>  <target_id>  (607) 
1

>  <reference_id>  (607) 
123

>  <inspiration_ids>  (607) 
[123, 52]

>  <energy_score>  (607) 
150.11842965474182

>  <distance_score>  (607) 
4.480473296613404

>  <path>  (607) 
/opt/xchem-fragalysis-2/maxwin/BulkDock/SCRATCH/505734/C3598-P123/C3598-P123.minimised.mol

>  <scratch_subdir>  (607) 
/opt/xchem-fragalysis-2/maxwin/BulkDock/SCRATCH/505734/C3598-P123

>  <fragmenstein_runtime>  (607) 
13.759545803070068

>  <fragmenstein_outcome>  (607) 
too moved

>  <fragmenstein_mode>  (607) 
expansion

>  <fragmenstein_error>  (607) 


$$$$
C3598-P52
     RDKit          3D

 58 60  0  0  0  0  0  0  0  0999 V2000
  -15.2315  -20.2719   33.5893 C   0  0  0  0  0  0  0  0  0  0  0  0
  -13.7811  -19.9961   33.8972 C   0  0  0  0  0  0  0  0  0  0  0  0
  -13.4889  -18.9160   34.3411 O   0  0  0  0  0  0  0  0  0  0  0  0
  -12.9717  -21.1428   33.6375 N   0  0  0  0  0  0  0  0  0  0  0  0
  -12.4392  -21.0984   32.2056 C   0  0  0  0  0  0  0  0  0  0  0  0
  -11.9468  -22.3901   31.5075 C   0  0  0  0  0  0  0  0  0  0  0  0
  -10.8066  -22.9655   32.2005 N   0  0  0  0  0  0  0  0  0  0  0  0
   -9.8586  -23.7702   31.6119 C   0  0  0  0  0  0  0  0  0  0  0  0
   -9.9885  -24.7401   30.6985 C   0  0  0  0  0  0  0  0  0  0  0  0
  -11.2562  -25.4343   30.3185 C   0  0  0  0  0  0  0  0  0  0  0  0
  -11.8562  -25.2382   28.9420 C   0  0  0  0  0  0  0  0  0  0  0  0
  -11.4721  -24.1279   28.1660 C   0  0  0  0  0  0  0  0  0  0  0  0
  -11.9982  -23.9195   26.8944 C   0  0  0  0  0  0  0  0  0  0  0  0
  -12.9185  -24.8170   26.3737 C   0  0  0  0  0  0  0  0  0  0  0  0
  -13.3279  -25.9159   27.1290 C   0  0  0  0  0  0  0  0  0  0  0  0
  -12.8330  -26.1445   28.4283 C   0  0  0  0  0  0  0  0  0  0  0  0
  -13.2525  -27.4009   29.1864 C   0  0  0  0  0  0  0  0  0  0  0  0
  -12.7021  -28.6460   28.4883 C   0  0  0  0  0  0  0  0  0  0  0  0
  -13.3445  -29.9208   28.9292 N   0  0  0  0  0  0  0  0  0  0  0  0
  -13.3475  -31.2159   28.3339 C   0  0  0  0  0  0  0  0  0  0  0  0
  -14.0260  -32.1949   29.2690 C   0  0  0  0  0  0  0  0  0  0  0  0
  -12.9085  -31.5924   27.2804 O   0  0  0  0  0  0  0  0  0  0  0  0
  -14.5944  -29.1630   28.5431 C   0  0  0  0  0  0  0  0  0  0  0  0
  -14.6813  -27.8613   29.3154 C   0  0  0  0  0  0  0  0  0  0  0  0
  -15.8005  -26.9520   28.9111 C   0  0  0  0  0  0  0  0  0  0  0  0
  -16.2826  -26.0811   29.6221 O   0  0  0  0  0  0  0  0  0  0  0  0
  -16.2691  -27.1568   27.6702 O   0  0  0  0  0  0  0  0  0  0  0  0
  -10.8934  -22.7697   33.6397 C   0  0  0  0  0  0  0  0  0  0  0  0
  -11.5294  -21.4066   33.9363 C   0  0  0  0  0  0  0  0  0  0  0  0
  -15.3531  -20.6321   32.5669 H   0  0  0  0  0  0  0  0  0  0  0  0
  -15.8007  -19.3401   33.6740 H   0  0  0  0  0  0  0  0  0  0  0  0
  -15.6305  -20.9794   34.3192 H   0  0  0  0  0  0  0  0  0  0  0  0
  -13.3284  -20.8380   31.6143 H   0  0  0  0  0  0  0  0  0  0  0  0
  -11.7751  -20.2383   32.0133 H   0  0  0  0  0  0  0  0  0  0  0  0
  -11.6719  -22.1298   30.4788 H   0  0  0  0  0  0  0  0  0  0  0  0
  -12.7552  -23.1055   31.4538 H   0  0  0  0  0  0  0  0  0  0  0  0
   -8.8553  -23.5371   31.9747 H   0  0  0  0  0  0  0  0  0  0  0  0
   -9.0808  -25.2027   30.3239 H   0  0  0  0  0  0  0  0  0  0  0  0
  -12.0155  -25.2081   31.0590 H   0  0  0  0  0  0  0  0  0  0  0  0
  -11.0326  -26.4962   30.4334 H   0  0  0  0  0  0  0  0  0  0  0  0
  -10.7412  -23.4145   28.5422 H   0  0  0  0  0  0  0  0  0  0  0  0
  -11.6847  -23.0605   26.3066 H   0  0  0  0  0  0  0  0  0  0  0  0
  -13.3108  -24.6693   25.3707 H   0  0  0  0  0  0  0  0  0  0  0  0
  -14.0159  -26.6137   26.6566 H   0  0  0  0  0  0  0  0  0  0  0  0
  -12.8653  -27.3699   30.2094 H   0  0  0  0  0  0  0  0  0  0  0  0
  -12.6887  -28.5969   27.3883 H   0  0  0  0  0  0  0  0  0  0  0  0
  -11.6414  -28.7600   28.7531 H   0  0  0  0  0  0  0  0  0  0  0  0
  -14.9901  -32.4859   28.8435 H   0  0  0  0  0  0  0  0  0  0  0  0
  -14.1901  -31.7644   30.2612 H   0  0  0  0  0  0  0  0  0  0  0  0
  -13.3909  -33.0781   29.3817 H   0  0  0  0  0  0  0  0  0  0  0  0
  -15.4446  -29.7960   28.8381 H   0  0  0  0  0  0  0  0  0  0  0  0
  -14.7032  -29.0845   27.4467 H   0  0  0  0  0  0  0  0  0  0  0  0
  -14.8808  -28.1252   30.3650 H   0  0  0  0  0  0  0  0  0  0  0  0
  -16.9568  -26.4710   27.5230 H   0  0  0  0  0  0  0  0  0  0  0  0
   -9.8954  -22.8169   34.0887 H   0  0  0  0  0  0  0  0  0  0  0  0
  -11.4938  -23.5584   34.0894 H   0  0  0  0  0  0  0  0  0  0  0  0
  -10.8778  -20.5665   33.6696 H   0  0  0  0  0  0  0  0  0  0  0  0
  -11.5423  -21.3475   35.0327 H   0  0  0  0  0  0  0  0  0  0  0  0
  1  2  1  0
  2  3  2  0
  2  4  1  0
  4  5  1  0
  5  6  1  0
  6  7  1  0
  7  8  1  0
  8  9  2  3
  9 10  1  0
 10 11  1  0
 11 12  2  0
 12 13  1  0
 13 14  2  0
 14 15  1  0
 15 16  2  0
 16 17  1  0
 17 18  1  0
 18 19  1  0
 19 20  1  0
 20 21  1  0
 20 22  2  0
 19 23  1  0
 23 24  1  0
 24 25  1  0
 25 26  2  0
 25 27  1  0
  7 28  1  0
 28 29  1  0
 29  4  1  0
 16 11  1  0
 24 17  1  0
  1 30  1  0
  1 31  1  0
  1 32  1  0
  5 33  1  0
  5 34  1  0
  6 35  1  0
  6 36  1  0
  8 37  1  0
  9 38  1  0
 10 39  1  0
 10 40  1  0
 12 41  1  0
 13 42  1  0
 14 43  1  0
 15 44  1  0
 17 45  1  0
 18 46  1  0
 18 47  1  0
 21 48  1  0
 21 49  1  0
 21 50  1  0
 23 51  1  0
 23 52  1  0
 24 53  1  0
 27 54  1  0
 28 55  1  0
 28 56  1  0
 29 57  1  0
 29 58  1  0
M  END
>  <Energy>  (608) 
188.93885372848186

>  <compound_id>  (608) 
3598

>  <target_id>  (608) 
1

>  <reference_id>  (608) 
52

>  <inspiration_ids>  (608) 
[123, 52]

>  <energy_score>  (608) 
89.6664430404523

>  <distance_score>  (608) 
3.613205001512413

>  <path>  (608) 
/opt/xchem-fragalysis-2/maxwin/BulkDock/SCRATCH/505734/C3598-P52/C3598-P52.minimised.mol

>  <scratch_subdir>  (608) 
/opt/xchem-fragalysis-2/maxwin/BulkDock/SCRATCH/505734/C3598-P52

>  <fragmenstein_runtime>  (608) 
12.672042846679688

>  <fragmenstein_outcome>  (608) 
too moved

>  <fragmenstein_mode>  (608) 
expansion

>  <fragmenstein_error>  (608) 


$$$$
C3601-P123
     RDKit          3D

 57 58  0  0  0  0  0  0  0  0999 V2000
   -7.0310  -21.5613   31.2317 C   0  0  0  0  0  0  0  0  0  0  0  0
   -7.3682  -22.2146   28.9181 C   0  0  0  0  0  0  0  0  0  0  0  0
   -8.8484  -22.9638   28.2212 C   0  0  0  0  0  0  0  0  0  0  0  0
   -9.8103  -24.1747   28.4916 C   0  0  0  0  0  0  0  0  0  0  0  0
   -9.2383  -25.5405   28.8018 C   0  0  0  0  0  0  0  0  0  0  0  0
  -10.8211  -24.0246   27.4844 O   0  0  0  0  0  0  0  0  0  0  0  0
  -11.1306  -25.0227   26.5611 C   0  0  0  0  0  0  0  0  0  0  0  0
  -12.5534  -25.1614   26.3545 N   0  0  0  0  0  0  0  0  0  0  0  0
  -13.3579  -25.1929   27.5512 C   0  0  0  0  0  0  0  0  0  0  0  0
  -13.4680  -23.8504   28.3386 C   0  0  0  0  0  0  0  0  0  0  0  0
  -13.0020  -23.8471   29.6840 N   0  0  0  0  0  0  0  0  0  0  0  0
  -13.2289  -22.9770   30.6866 C   0  0  0  0  0  0  0  0  0  0  0  0
  -14.0802  -22.0940   30.6771 O   0  0  0  0  0  0  0  0  0  0  0  0
  -12.2162  -23.0516   31.7549 C   0  0  0  0  0  0  0  0  0  0  0  0
  -11.4714  -21.7355   31.5011 C   0  0  0  0  0  0  0  0  0  0  0  0
  -11.3626  -21.4118   30.0124 C   0  0  0  0  0  0  0  0  0  0  0  0
  -11.1743  -24.1233   31.9240 C   0  0  0  0  0  0  0  0  0  0  0  0
  -10.2426  -23.8341   32.7015 O   0  0  0  0  0  0  0  0  0  0  0  0
  -11.1255  -25.3795   31.3892 N   0  0  0  0  0  0  0  0  0  0  0  0
  -10.2762  -26.2346   32.1232 C   0  0  0  0  0  0  0  0  0  0  0  0
  -10.3701  -27.6060   31.5117 C   0  0  0  0  0  0  0  0  0  0  0  0
  -11.5223  -27.6057   30.5877 C   0  0  0  0  0  0  0  0  0  0  0  0
  -11.9660  -26.2006   30.5573 C   0  0  0  0  0  0  0  0  0  0  0  0
  -11.8959  -25.8756   29.1769 O   0  0  0  0  0  0  0  0  0  0  0  0
  -13.0288  -26.3506   28.3838 N   0  0  0  0  0  0  0  0  0  0  0  0
   -6.8605  -22.4229   31.8926 H   0  0  0  0  0  0  0  0  0  0  0  0
   -7.6560  -21.2763   32.1888 H   0  0  0  0  0  0  0  0  0  0  0  0
   -6.1363  -20.7993   31.5483 H   0  0  0  0  0  0  0  0  0  0  0  0
   -6.5138  -22.7514   28.3090 H   0  0  0  0  0  0  0  0  0  0  0  0
   -7.3040  -21.4248   28.0440 H   0  0  0  0  0  0  0  0  0  0  0  0
   -9.5691  -22.1431   28.2080 H   0  0  0  0  0  0  0  0  0  0  0  0
   -8.4427  -23.1005   27.2291 H   0  0  0  0  0  0  0  0  0  0  0  0
  -10.3668  -23.9708   29.3930 H   0  0  0  0  0  0  0  0  0  0  0  0
   -9.7334  -26.0410   29.6025 H   0  0  0  0  0  0  0  0  0  0  0  0
   -9.2351  -26.2794   28.0060 H   0  0  0  0  0  0  0  0  0  0  0  0
   -8.2604  -25.4032   29.2162 H   0  0  0  0  0  0  0  0  0  0  0  0
  -10.7268  -26.0037   26.8031 H   0  0  0  0  0  0  0  0  0  0  0  0
  -10.7243  -24.7046   25.5999 H   0  0  0  0  0  0  0  0  0  0  0  0
  -12.7529  -25.9615   25.7670 H   0  0  0  0  0  0  0  0  0  0  0  0
  -14.3699  -25.3877   27.1743 H   0  0  0  0  0  0  0  0  0  0  0  0
  -13.0514  -22.9934   27.8104 H   0  0  0  0  0  0  0  0  0  0  0  0
  -14.5085  -23.7462   28.5344 H   0  0  0  0  0  0  0  0  0  0  0  0
  -13.2957  -24.7274   30.0432 H   0  0  0  0  0  0  0  0  0  0  0  0
  -12.7463  -23.0107   32.7156 H   0  0  0  0  0  0  0  0  0  0  0  0
  -11.9755  -20.9527   32.0637 H   0  0  0  0  0  0  0  0  0  0  0  0
  -10.4688  -21.7221   31.9054 H   0  0  0  0  0  0  0  0  0  0  0  0
  -12.2338  -20.9211   29.5812 H   0  0  0  0  0  0  0  0  0  0  0  0
  -11.2227  -22.2740   29.3890 H   0  0  0  0  0  0  0  0  0  0  0  0
  -10.5094  -20.7941   29.8392 H   0  0  0  0  0  0  0  0  0  0  0  0
  -10.6452  -26.2222   33.1562 H   0  0  0  0  0  0  0  0  0  0  0  0
   -9.2497  -25.8445   32.0859 H   0  0  0  0  0  0  0  0  0  0  0  0
  -10.5127  -28.4164   32.2250 H   0  0  0  0  0  0  0  0  0  0  0  0
   -9.4321  -27.7824   30.9912 H   0  0  0  0  0  0  0  0  0  0  0  0
  -12.2899  -28.3200   30.8783 H   0  0  0  0  0  0  0  0  0  0  0  0
  -11.2425  -27.8840   29.5760 H   0  0  0  0  0  0  0  0  0  0  0  0
  -12.9053  -26.1464   31.0151 H   0  0  0  0  0  0  0  0  0  0  0  0
  -12.5856  -27.0415   27.7834 H   0  0  0  0  0  0  0  0  0  0  0  0
  1  2  1  0
  2  3  1  0
  3  4  1  0
  4  5  1  0
  4  6  1  0
  6  7  1  0
  7  8  1  0
  8  9  1  0
  9 10  1  0
 10 11  1  0
 11 12  1  0
 12 13  2  0
 12 14  1  0
 14 15  1  0
 15 16  1  0
 14 17  1  0
 17 18  2  0
 17 19  1  0
 19 20  1  0
 20 21  1  0
 21 22  1  0
 22 23  1  0
 23 24  1  0
 24 25  1  0
 25  9  1  0
 23 19  1  0
  1 26  1  0
  1 27  1  0
  1 28  1  0
  2 29  1  0
  2 30  1  0
  3 31  1  0
  3 32  1  0
  4 33  1  0
  5 34  1  0
  5 35  1  0
  5 36  1  0
  7 37  1  0
  7 38  1  0
  8 39  1  0
  9 40  1  0
 10 41  1  0
 10 42  1  0
 11 43  1  0
 14 44  1  0
 15 45  1  0
 15 46  1  0
 16 47  1  0
 16 48  1  0
 16 49  1  0
 20 50  1  0
 20 51  1  0
 21 52  1  0
 21 53  1  0
 22 54  1  0
 22 55  1  0
 23 56  1  0
 25 57  1  0
M  END
>  <Energy>  (609) 
516.91576936813124

>  <compound_id>  (609) 
3601

>  <target_id>  (609) 
1

>  <reference_id>  (609) 
123

>  <inspiration_ids>  (609) 
[123, 64]

>  <energy_score>  (609) 
442.4798722432862

>  <distance_score>  (609) 
2.4223230735038235

>  <path>  (609) 
/opt/xchem-fragalysis-2/maxwin/BulkDock/SCRATCH/505734/C3601-P123/C3601-P123.minimised.mol

>  <scratch_subdir>  (609) 
/opt/xchem-fragalysis-2/maxwin/BulkDock/SCRATCH/505734/C3601-P123

>  <fragmenstein_runtime>  (609) 
8.870811700820923

>  <fragmenstein_outcome>  (609) 
too moved

>  <fragmenstein_mode>  (609) 
expansion

>  <fragmenstein_error>  (609) 


$$$$
C3601-P64
     RDKit          3D

 57 58  0  0  0  0  0  0  0  0999 V2000
   -9.3935  -24.0700   31.7404 C   0  0  0  0  0  0  0  0  0  0  0  0
   -9.0170  -24.6697   30.2457 C   0  0  0  0  0  0  0  0  0  0  0  0
   -9.1890  -24.3775   28.5999 C   0  0  0  0  0  0  0  0  0  0  0  0
   -9.8196  -25.0172   27.2281 C   0  0  0  0  0  0  0  0  0  0  0  0
   -9.5793  -26.5401   26.9098 C   0  0  0  0  0  0  0  0  0  0  0  0
  -10.9409  -24.3460   26.6720 O   0  0  0  0  0  0  0  0  0  0  0  0
  -11.4387  -24.7970   25.4438 C   0  0  0  0  0  0  0  0  0  0  0  0
  -12.1016  -26.0738   25.5552 N   0  0  0  0  0  0  0  0  0  0  0  0
  -13.0925  -26.1395   26.6156 C   0  0  0  0  0  0  0  0  0  0  0  0
  -13.6291  -24.7350   27.1631 C   0  0  0  0  0  0  0  0  0  0  0  0
  -12.7991  -23.7213   28.0203 N   0  0  0  0  0  0  0  0  0  0  0  0
  -12.8366  -23.2851   29.3424 C   0  0  0  0  0  0  0  0  0  0  0  0
  -13.8192  -22.8367   29.9031 O   0  0  0  0  0  0  0  0  0  0  0  0
  -11.7286  -23.4934   30.3730 C   0  0  0  0  0  0  0  0  0  0  0  0
  -12.0893  -22.9258   31.7807 C   0  0  0  0  0  0  0  0  0  0  0  0
  -11.5778  -21.5087   31.8529 C   0  0  0  0  0  0  0  0  0  0  0  0
  -11.3589  -24.9040   30.0942 C   0  0  0  0  0  0  0  0  0  0  0  0
  -11.2715  -24.9294   28.8770 O   0  0  0  0  0  0  0  0  0  0  0  0
  -11.0265  -26.1308   30.5302 N   0  0  0  0  0  0  0  0  0  0  0  0
  -10.1692  -26.5701   31.6816 C   0  0  0  0  0  0  0  0  0  0  0  0
   -9.4011  -27.7384   31.1318 C   0  0  0  0  0  0  0  0  0  0  0  0
   -9.5833  -27.5319   29.6435 C   0  0  0  0  0  0  0  0  0  0  0  0
  -10.9987  -27.2304   29.4208 C   0  0  0  0  0  0  0  0  0  0  0  0
  -11.5199  -26.8164   28.1507 O   0  0  0  0  0  0  0  0  0  0  0  0
  -12.7155  -27.3015   27.4887 N   0  0  0  0  0  0  0  0  0  0  0  0
   -8.4796  -24.0522   32.3283 H   0  0  0  0  0  0  0  0  0  0  0  0
  -10.1134  -24.5566   32.3954 H   0  0  0  0  0  0  0  0  0  0  0  0
   -9.8435  -23.1117   31.7915 H   0  0  0  0  0  0  0  0  0  0  0  0
   -9.2947  -25.6181   30.2033 H   0  0  0  0  0  0  0  0  0  0  0  0
   -8.0802  -25.1268   30.4710 H   0  0  0  0  0  0  0  0  0  0  0  0
   -9.0800  -23.3280   28.3279 H   0  0  0  0  0  0  0  0  0  0  0  0
   -8.2973  -24.9682   28.4960 H   0  0  0  0  0  0  0  0  0  0  0  0
   -9.2056  -24.4585   26.5539 H   0  0  0  0  0  0  0  0  0  0  0  0
   -9.9036  -26.8767   25.9164 H   0  0  0  0  0  0  0  0  0  0  0  0
   -8.5685  -26.8517   27.1755 H   0  0  0  0  0  0  0  0  0  0  0  0
  -10.0413  -27.3447   27.3836 H   0  0  0  0  0  0  0  0  0  0  0  0
  -10.6333  -24.8306   24.7121 H   0  0  0  0  0  0  0  0  0  0  0  0
  -12.1211  -24.0246   25.0757 H   0  0  0  0  0  0  0  0  0  0  0  0
  -12.5051  -26.3674   24.6732 H   0  0  0  0  0  0  0  0  0  0  0  0
  -13.9904  -26.5294   26.1146 H   0  0  0  0  0  0  0  0  0  0  0  0
  -14.5761  -24.9749   27.6303 H   0  0  0  0  0  0  0  0  0  0  0  0
  -13.8784  -24.1799   26.2471 H   0  0  0  0  0  0  0  0  0  0  0  0
  -11.8319  -23.9318   27.7934 H   0  0  0  0  0  0  0  0  0  0  0  0
  -11.0081  -22.8231   29.9251 H   0  0  0  0  0  0  0  0  0  0  0  0
  -13.1586  -22.8097   31.9800 H   0  0  0  0  0  0  0  0  0  0  0  0
  -11.7423  -23.5258   32.6225 H   0  0  0  0  0  0  0  0  0  0  0  0
  -10.5050  -21.3887   31.9355 H   0  0  0  0  0  0  0  0  0  0  0  0
  -11.7969  -21.0391   30.9017 H   0  0  0  0  0  0  0  0  0  0  0  0
  -12.0370  -20.9864   32.6935 H   0  0  0  0  0  0  0  0  0  0  0  0
  -10.7005  -26.5811   32.6280 H   0  0  0  0  0  0  0  0  0  0  0  0
   -9.3191  -25.9913   31.9265 H   0  0  0  0  0  0  0  0  0  0  0  0
   -9.7848  -28.6588   31.5619 H   0  0  0  0  0  0  0  0  0  0  0  0
   -8.3464  -27.7714   31.3789 H   0  0  0  0  0  0  0  0  0  0  0  0
   -8.8276  -28.0866   29.1659 H   0  0  0  0  0  0  0  0  0  0  0  0
   -9.2205  -26.7139   29.0750 H   0  0  0  0  0  0  0  0  0  0  0  0
  -11.5297  -28.1516   29.5978 H   0  0  0  0  0  0  0  0  0  0  0  0
  -12.2782  -27.9256   26.7981 H   0  0  0  0  0  0  0  0  0  0  0  0
  1  2  1  0
  2  3  1  0
  3  4  1  0
  4  5  1  0
  4  6  1  0
  6  7  1  0
  7  8  1  0
  8  9  1  0
  9 10  1  0
 10 11  1  0
 11 12  1  0
 12 13  2  0
 12 14  1  0
 14 15  1  0
 15 16  1  0
 14 17  1  0
 17 18  2  0
 17 19  1  0
 19 20  1  0
 20 21  1  0
 21 22  1  0
 22 23  1  0
 23 24  1  0
 24 25  1  0
 25  9  1  0
 23 19  1  0
  1 26  1  0
  1 27  1  0
  1 28  1  0
  2 29  1  0
  2 30  1  0
  3 31  1  0
  3 32  1  0
  4 33  1  0
  5 34  1  0
  5 35  1  0
  5 36  1  0
  7 37  1  0
  7 38  1  0
  8 39  1  0
  9 40  1  0
 10 41  1  0
 10 42  1  0
 11 43  1  0
 14 44  1  0
 15 45  1  0
 15 46  1  0
 16 47  1  0
 16 48  1  0
 16 49  1  0
 20 50  1  0
 20 51  1  0
 21 52  1  0
 21 53  1  0
 22 54  1  0
 22 55  1  0
 23 56  1  0
 25 57  1  0
M  END
>  <Energy>  (610) 
517.74479507568185

>  <compound_id>  (610) 
3601

>  <target_id>  (610) 
1

>  <reference_id>  (610) 
64

>  <inspiration_ids>  (610) 
[123, 64]

>  <energy_score>  (610) 
443.3088979508397

>  <distance_score>  (610) 
3.058195944141865

>  <path>  (610) 
/opt/xchem-fragalysis-2/maxwin/BulkDock/SCRATCH/505734/C3601-P64/C3601-P64.minimised.mol

>  <scratch_subdir>  (610) 
/opt/xchem-fragalysis-2/maxwin/BulkDock/SCRATCH/505734/C3601-P64

>  <fragmenstein_runtime>  (610) 
12.34948205947876

>  <fragmenstein_outcome>  (610) 
too moved

>  <fragmenstein_mode>  (610) 
expansion

>  <fragmenstein_error>  (610) 


$$$$
C3603-P123
     RDKit          3D

 40 41  0  0  0  0  0  0  0  0999 V2000
   -8.9273  -25.1546   32.4049 C   0  0  0  0  0  0  0  0  0  0  0  0
   -9.6280  -25.3298   31.0985 C   0  0  0  0  0  0  0  0  0  0  0  0
   -9.0609  -25.4109   30.0505 O   0  0  0  0  0  0  0  0  0  0  0  0
  -10.9841  -25.2774   31.3891 N   0  0  0  0  0  0  0  0  0  0  0  0
  -12.1493  -25.4113   30.5290 C   0  0  0  0  0  0  0  0  0  0  0  0
  -12.1525  -24.5274   29.3054 C   0  0  0  0  0  0  0  0  0  0  0  0
  -11.2459  -25.0130   28.1617 C   0  0  0  0  0  0  0  0  0  0  0  0
  -11.1180  -24.1526   27.0668 C   0  0  0  0  0  0  0  0  0  0  0  0
  -11.3308  -24.6670   25.7998 C   0  0  0  0  0  0  0  0  0  0  0  0
  -11.5415  -26.0320   25.6352 C   0  0  0  0  0  0  0  0  0  0  0  0
  -11.3718  -26.9019   26.6911 C   0  0  0  0  0  0  0  0  0  0  0  0
  -11.1571  -26.3946   27.9547 C   0  0  0  0  0  0  0  0  0  0  0  0
  -13.4644  -24.4272   28.5277 C   0  0  0  0  0  0  0  0  0  0  0  0
  -14.4447  -23.8751   29.2381 F   0  0  0  0  0  0  0  0  0  0  0  0
  -13.9375  -25.6382   28.1344 F   0  0  0  0  0  0  0  0  0  0  0  0
  -11.7506  -23.2849   30.0418 C   0  0  0  0  0  0  0  0  0  0  0  0
  -12.6442  -22.1294   30.0530 C   0  0  0  0  0  0  0  0  0  0  0  0
  -12.4710  -21.1750   29.3187 O   0  0  0  0  0  0  0  0  0  0  0  0
  -13.6902  -22.2732   30.8587 O   0  0  0  0  0  0  0  0  0  0  0  0
  -11.4584  -23.8283   31.4277 C   0  0  0  0  0  0  0  0  0  0  0  0
  -12.1746  -23.2257   33.0016 S   0  0  0  0  0  0  0  0  0  0  0  0
  -13.7325  -23.5705   33.2859 N   0  0  0  0  0  0  0  0  0  0  0  0
  -11.5077  -24.0204   34.0031 O   0  0  0  0  0  0  0  0  0  0  0  0
  -12.1151  -21.7780   33.0022 O   0  0  0  0  0  0  0  0  0  0  0  0
   -9.5589  -25.4175   33.2550 H   0  0  0  0  0  0  0  0  0  0  0  0
   -8.6543  -24.1111   32.5373 H   0  0  0  0  0  0  0  0  0  0  0  0
   -8.0549  -25.7867   32.4136 H   0  0  0  0  0  0  0  0  0  0  0  0
  -12.9539  -25.2145   31.1891 H   0  0  0  0  0  0  0  0  0  0  0  0
  -12.2344  -26.4761   30.2979 H   0  0  0  0  0  0  0  0  0  0  0  0
  -11.1513  -23.0719   27.1941 H   0  0  0  0  0  0  0  0  0  0  0  0
  -11.4052  -23.9843   24.9585 H   0  0  0  0  0  0  0  0  0  0  0  0
  -11.8272  -26.4398   24.6825 H   0  0  0  0  0  0  0  0  0  0  0  0
  -11.4892  -27.9672   26.5502 H   0  0  0  0  0  0  0  0  0  0  0  0
  -11.1234  -27.0930   28.7827 H   0  0  0  0  0  0  0  0  0  0  0  0
  -13.3814  -23.8118   27.6359 H   0  0  0  0  0  0  0  0  0  0  0  0
  -10.8730  -22.9046   29.5375 H   0  0  0  0  0  0  0  0  0  0  0  0
  -14.4284  -21.6428   30.7303 H   0  0  0  0  0  0  0  0  0  0  0  0
  -10.5247  -23.2876   31.6359 H   0  0  0  0  0  0  0  0  0  0  0  0
  -14.0718  -23.1302   34.1377 H   0  0  0  0  0  0  0  0  0  0  0  0
  -14.3771  -23.4747   32.4820 H   0  0  0  0  0  0  0  0  0  0  0  0
  1  2  1  0
  2  3  2  0
  2  4  1  0
  4  5  1  0
  5  6  1  0
  6  7  1  0
  7  8  2  0
  8  9  1  0
  9 10  2  0
 10 11  1  0
 11 12  2  0
  6 13  1  0
 13 14  1  0
 13 15  1  0
  6 16  1  0
 16 17  1  0
 17 18  2  0
 17 19  1  0
 16 20  1  0
 20 21  1  0
 21 22  1  0
 21 23  2  0
 21 24  2  0
 20  4  1  0
 12  7  1  0
  1 25  1  0
  1 26  1  0
  1 27  1  0
  5 28  1  0
  5 29  1  0
  8 30  1  0
  9 31  1  0
 10 32  1  0
 11 33  1  0
 12 34  1  0
 13 35  1  0
 16 36  1  0
 19 37  1  0
 20 38  1  0
 22 39  1  0
 22 40  1  0
M  END
>  <Energy>  (611) 
52.013409196402456

>  <compound_id>  (611) 
3603

>  <target_id>  (611) 
1

>  <reference_id>  (611) 
123

>  <inspiration_ids>  (611) 
[123, 82]

>  <energy_score>  (611) 
31.975825754140374

>  <distance_score>  (611) 
2.0900820535011886

>  <path>  (611) 
/opt/xchem-fragalysis-2/maxwin/BulkDock/SCRATCH/505734/C3603-P123/C3603-P123.minimised.mol

>  <scratch_subdir>  (611) 
/opt/xchem-fragalysis-2/maxwin/BulkDock/SCRATCH/505734/C3603-P123

>  <fragmenstein_runtime>  (611) 
4.677607536315918

>  <fragmenstein_outcome>  (611) 
too moved

>  <fragmenstein_mode>  (611) 
expansion

>  <fragmenstein_error>  (611) 


$$$$
C3603-P82
     RDKit          3D

 40 41  0  0  0  0  0  0  0  0999 V2000
  -15.2643  -22.7949   31.9936 C   0  0  0  0  0  0  0  0  0  0  0  0
  -14.0771  -23.7135   32.2712 C   0  0  0  0  0  0  0  0  0  0  0  0
  -13.8313  -23.9487   33.4299 O   0  0  0  0  0  0  0  0  0  0  0  0
  -13.3726  -24.0827   31.0746 N   0  0  0  0  0  0  0  0  0  0  0  0
  -12.1658  -24.9742   30.8736 C   0  0  0  0  0  0  0  0  0  0  0  0
  -11.3172  -24.8828   29.6061 C   0  0  0  0  0  0  0  0  0  0  0  0
  -11.5774  -25.8014   28.3863 C   0  0  0  0  0  0  0  0  0  0  0  0
  -11.2267  -25.4405   27.0807 C   0  0  0  0  0  0  0  0  0  0  0  0
  -11.5622  -26.2370   25.9827 C   0  0  0  0  0  0  0  0  0  0  0  0
  -12.1509  -27.4783   26.1530 C   0  0  0  0  0  0  0  0  0  0  0  0
  -12.3420  -27.9423   27.4402 C   0  0  0  0  0  0  0  0  0  0  0  0
  -12.0026  -27.1250   28.5282 C   0  0  0  0  0  0  0  0  0  0  0  0
   -9.9164  -25.3331   30.0276 C   0  0  0  0  0  0  0  0  0  0  0  0
   -9.4934  -24.6704   31.1149 F   0  0  0  0  0  0  0  0  0  0  0  0
   -9.9462  -26.6421   30.3905 F   0  0  0  0  0  0  0  0  0  0  0  0
  -11.5603  -23.4046   29.4711 C   0  0  0  0  0  0  0  0  0  0  0  0
  -12.1370  -22.9493   28.1618 C   0  0  0  0  0  0  0  0  0  0  0  0
  -12.9697  -23.4723   27.4515 O   0  0  0  0  0  0  0  0  0  0  0  0
  -11.5522  -21.8470   27.7148 O   0  0  0  0  0  0  0  0  0  0  0  0
  -12.3909  -23.0380   30.7146 C   0  0  0  0  0  0  0  0  0  0  0  0
  -11.4707  -22.2648   32.1136 S   0  0  0  0  0  0  0  0  0  0  0  0
  -12.5668  -21.6878   33.2230 N   0  0  0  0  0  0  0  0  0  0  0  0
  -10.7184  -23.2854   32.7947 O   0  0  0  0  0  0  0  0  0  0  0  0
  -10.8581  -21.0486   31.6456 O   0  0  0  0  0  0  0  0  0  0  0  0
  -15.1691  -21.8961   32.6105 H   0  0  0  0  0  0  0  0  0  0  0  0
  -16.1931  -23.2983   32.2738 H   0  0  0  0  0  0  0  0  0  0  0  0
  -15.3265  -22.4627   30.9610 H   0  0  0  0  0  0  0  0  0  0  0  0
  -11.6169  -25.0591   31.8183 H   0  0  0  0  0  0  0  0  0  0  0  0
  -12.5728  -25.9574   30.8162 H   0  0  0  0  0  0  0  0  0  0  0  0
  -10.7177  -24.5042   26.8649 H   0  0  0  0  0  0  0  0  0  0  0  0
  -11.3492  -25.8649   24.9907 H   0  0  0  0  0  0  0  0  0  0  0  0
  -12.3963  -28.0953   25.2955 H   0  0  0  0  0  0  0  0  0  0  0  0
  -12.7059  -28.9520   27.6089 H   0  0  0  0  0  0  0  0  0  0  0  0
  -12.0209  -27.5665   29.5189 H   0  0  0  0  0  0  0  0  0  0  0  0
   -9.1782  -25.2123   29.2307 H   0  0  0  0  0  0  0  0  0  0  0  0
  -10.6448  -22.8598   29.4949 H   0  0  0  0  0  0  0  0  0  0  0  0
  -11.9690  -21.6973   26.8342 H   0  0  0  0  0  0  0  0  0  0  0  0
  -13.0076  -22.1780   30.4206 H   0  0  0  0  0  0  0  0  0  0  0  0
  -12.1265  -20.9581   33.7888 H   0  0  0  0  0  0  0  0  0  0  0  0
  -12.8429  -22.4776   33.8346 H   0  0  0  0  0  0  0  0  0  0  0  0
  1  2  1  0
  2  3  2  0
  2  4  1  0
  4  5  1  0
  5  6  1  0
  6  7  1  0
  7  8  2  0
  8  9  1  0
  9 10  2  0
 10 11  1  0
 11 12  2  0
  6 13  1  0
 13 14  1  0
 13 15  1  0
  6 16  1  0
 16 17  1  0
 17 18  2  0
 17 19  1  0
 16 20  1  0
 20 21  1  0
 21 22  1  0
 21 23  2  0
 21 24  2  0
 20  4  1  0
 12  7  1  0
  1 25  1  0
  1 26  1  0
  1 27  1  0
  5 28  1  0
  5 29  1  0
  8 30  1  0
  9 31  1  0
 10 32  1  0
 11 33  1  0
 12 34  1  0
 13 35  1  0
 16 36  1  0
 19 37  1  0
 20 38  1  0
 22 39  1  0
 22 40  1  0
M  END
>  <Energy>  (612) 
18.663377267550246

>  <compound_id>  (612) 
3603

>  <target_id>  (612) 
1

>  <reference_id>  (612) 
82

>  <inspiration_ids>  (612) 
[123, 82]

>  <energy_score>  (612) 
-1.37420617471048

>  <distance_score>  (612) 
2.852057803430349

>  <path>  (612) 
/opt/xchem-fragalysis-2/maxwin/BulkDock/SCRATCH/505734/C3603-P82/C3603-P82.minimised.mol

>  <scratch_subdir>  (612) 
/opt/xchem-fragalysis-2/maxwin/BulkDock/SCRATCH/505734/C3603-P82

>  <fragmenstein_runtime>  (612) 
4.924959182739258

>  <fragmenstein_outcome>  (612) 
too moved

>  <fragmenstein_mode>  (612) 
expansion

>  <fragmenstein_error>  (612) 


$$$$
C3604-P123
     RDKit          3D

 34 35  0  0  0  0  0  0  0  0999 V2000
  -10.9452  -27.3666   26.1991 C   0  0  0  0  0  0  0  0  0  0  0  0
  -11.9622  -26.2753   26.2102 C   0  0  0  0  0  0  0  0  0  0  0  0
  -13.0360  -26.4025   25.6934 O   0  0  0  0  0  0  0  0  0  0  0  0
  -11.4231  -25.2080   26.9543 N   0  0  0  0  0  0  0  0  0  0  0  0
  -11.9624  -23.8655   27.2434 C   0  0  0  0  0  0  0  0  0  0  0  0
  -11.3612  -23.2036   28.4507 C   0  0  0  0  0  0  0  0  0  0  0  0
  -12.4466  -22.4558   29.1224 C   0  0  0  0  0  0  0  0  0  0  0  0
  -12.4023  -21.2676   29.3875 O   0  0  0  0  0  0  0  0  0  0  0  0
  -13.4669  -23.2509   29.5059 O   0  0  0  0  0  0  0  0  0  0  0  0
  -10.8924  -24.3944   29.2391 C   0  0  0  0  0  0  0  0  0  0  0  0
  -11.0074  -24.4040   30.7560 C   0  0  0  0  0  0  0  0  0  0  0  0
  -11.3432  -23.2426   31.4997 C   0  0  0  0  0  0  0  0  0  0  0  0
  -11.7451  -23.2806   32.8189 C   0  0  0  0  0  0  0  0  0  0  0  0
  -11.5639  -24.4470   33.5001 C   0  0  0  0  0  0  0  0  0  0  0  0
  -10.9803  -25.5239   32.8577 C   0  0  0  0  0  0  0  0  0  0  0  0
  -10.7052  -25.5408   31.4945 C   0  0  0  0  0  0  0  0  0  0  0  0
  -10.3224  -26.7623   30.9272 N   0  0  0  0  0  0  0  0  0  0  0  0
  -11.7143  -25.4005   28.4416 C   0  0  0  0  0  0  0  0  0  0  0  0
  -10.1032  -27.1350   26.8532 H   0  0  0  0  0  0  0  0  0  0  0  0
  -11.4417  -28.2638   26.5653 H   0  0  0  0  0  0  0  0  0  0  0  0
  -10.5498  -27.5122   25.1993 H   0  0  0  0  0  0  0  0  0  0  0  0
  -11.7163  -23.2713   26.3550 H   0  0  0  0  0  0  0  0  0  0  0  0
  -13.0606  -23.9056   27.2002 H   0  0  0  0  0  0  0  0  0  0  0  0
  -10.5437  -22.5224   28.2155 H   0  0  0  0  0  0  0  0  0  0  0  0
  -13.7871  -22.9742   30.4007 H   0  0  0  0  0  0  0  0  0  0  0  0
   -9.8342  -24.5715   28.9993 H   0  0  0  0  0  0  0  0  0  0  0  0
  -11.3141  -22.2462   31.0804 H   0  0  0  0  0  0  0  0  0  0  0  0
  -12.1351  -22.4010   33.3197 H   0  0  0  0  0  0  0  0  0  0  0  0
  -11.8223  -24.5210   34.5435 H   0  0  0  0  0  0  0  0  0  0  0  0
  -10.7742  -26.3985   33.4548 H   0  0  0  0  0  0  0  0  0  0  0  0
   -9.8566  -27.3460   31.6381 H   0  0  0  0  0  0  0  0  0  0  0  0
   -9.7201  -26.6752   30.1206 H   0  0  0  0  0  0  0  0  0  0  0  0
  -12.7938  -25.4501   28.6585 H   0  0  0  0  0  0  0  0  0  0  0  0
  -11.3766  -26.4166   28.6752 H   0  0  0  0  0  0  0  0  0  0  0  0
  1  2  1  0
  2  3  2  0
  2  4  1  0
  4  5  1  0
  5  6  1  0
  6  7  1  0
  7  8  2  0
  7  9  1  0
  6 10  1  0
 10 11  1  0
 11 12  2  0
 12 13  1  0
 13 14  2  0
 14 15  1  0
 15 16  2  0
 16 17  1  0
 10 18  1  0
 18  4  1  0
 16 11  1  0
  1 19  1  0
  1 20  1  0
  1 21  1  0
  5 22  1  0
  5 23  1  0
  6 24  1  0
  9 25  1  0
 10 26  1  0
 12 27  1  0
 13 28  1  0
 14 29  1  0
 15 30  1  0
 17 31  1  0
 17 32  1  0
 18 33  1  0
 18 34  1  0
M  END
>  <Energy>  (613) 
60.238548598830221

>  <compound_id>  (613) 
3604

>  <target_id>  (613) 
1

>  <reference_id>  (613) 
123

>  <inspiration_ids>  (613) 
[123, 88]

>  <energy_score>  (613) 
33.678560656035444

>  <distance_score>  (613) 
1.7332661262982734

>  <path>  (613) 
/opt/xchem-fragalysis-2/maxwin/BulkDock/SCRATCH/505734/C3604-P123/C3604-P123.minimised.mol

>  <scratch_subdir>  (613) 
/opt/xchem-fragalysis-2/maxwin/BulkDock/SCRATCH/505734/C3604-P123

>  <fragmenstein_runtime>  (613) 
5.911172151565552

>  <fragmenstein_outcome>  (613) 
too moved

>  <fragmenstein_mode>  (613) 
expansion

>  <fragmenstein_error>  (613) 


$$$$
C3604-P88
     RDKit          3D

 34 35  0  0  0  0  0  0  0  0999 V2000
  -11.7762  -28.5275   29.4907 C   0  0  0  0  0  0  0  0  0  0  0  0
  -12.5726  -27.3023   29.1087 C   0  0  0  0  0  0  0  0  0  0  0  0
  -13.7428  -27.3304   28.9923 O   0  0  0  0  0  0  0  0  0  0  0  0
  -11.5923  -26.1617   28.9021 N   0  0  0  0  0  0  0  0  0  0  0  0
  -11.8088  -24.7733   28.3956 C   0  0  0  0  0  0  0  0  0  0  0  0
  -10.6790  -23.8037   28.6882 C   0  0  0  0  0  0  0  0  0  0  0  0
  -11.1142  -22.4111   28.3125 C   0  0  0  0  0  0  0  0  0  0  0  0
  -10.9467  -21.3793   28.9292 O   0  0  0  0  0  0  0  0  0  0  0  0
  -11.7095  -22.4081   27.0998 O   0  0  0  0  0  0  0  0  0  0  0  0
  -10.3470  -24.2626   30.0869 C   0  0  0  0  0  0  0  0  0  0  0  0
  -10.3576  -23.4619   31.3801 C   0  0  0  0  0  0  0  0  0  0  0  0
  -11.2930  -22.4405   31.5995 C   0  0  0  0  0  0  0  0  0  0  0  0
  -11.3612  -21.7487   32.8115 C   0  0  0  0  0  0  0  0  0  0  0  0
  -10.5132  -22.0767   33.8526 C   0  0  0  0  0  0  0  0  0  0  0  0
   -9.5830  -23.0869   33.6751 C   0  0  0  0  0  0  0  0  0  0  0  0
   -9.4965  -23.7864   32.4609 C   0  0  0  0  0  0  0  0  0  0  0  0
   -8.7438  -24.9718   32.5106 N   0  0  0  0  0  0  0  0  0  0  0  0
  -11.3793  -25.3870   30.1766 C   0  0  0  0  0  0  0  0  0  0  0  0
  -10.7988  -28.5318   29.0055 H   0  0  0  0  0  0  0  0  0  0  0  0
  -11.6642  -28.5652   30.5764 H   0  0  0  0  0  0  0  0  0  0  0  0
  -12.3141  -29.4200   29.1564 H   0  0  0  0  0  0  0  0  0  0  0  0
  -11.8828  -24.9145   27.3069 H   0  0  0  0  0  0  0  0  0  0  0  0
  -12.8170  -24.4053   28.6614 H   0  0  0  0  0  0  0  0  0  0  0  0
   -9.8334  -24.0402   28.0339 H   0  0  0  0  0  0  0  0  0  0  0  0
  -12.0036  -21.4768   26.9039 H   0  0  0  0  0  0  0  0  0  0  0  0
   -9.3482  -24.7026   29.9879 H   0  0  0  0  0  0  0  0  0  0  0  0
  -12.0438  -22.1876   30.8570 H   0  0  0  0  0  0  0  0  0  0  0  0
  -12.1321  -20.9941   32.9553 H   0  0  0  0  0  0  0  0  0  0  0  0
  -10.6363  -21.5841   34.8120 H   0  0  0  0  0  0  0  0  0  0  0  0
   -8.9550  -23.3680   34.5140 H   0  0  0  0  0  0  0  0  0  0  0  0
   -7.9121  -24.8707   33.0943 H   0  0  0  0  0  0  0  0  0  0  0  0
   -8.4674  -25.3351   31.6090 H   0  0  0  0  0  0  0  0  0  0  0  0
  -12.3421  -25.0536   30.5676 H   0  0  0  0  0  0  0  0  0  0  0  0
  -11.0495  -26.1191   30.9239 H   0  0  0  0  0  0  0  0  0  0  0  0
  1  2  1  0
  2  3  2  0
  2  4  1  0
  4  5  1  0
  5  6  1  0
  6  7  1  0
  7  8  2  0
  7  9  1  0
  6 10  1  0
 10 11  1  0
 11 12  2  0
 12 13  1  0
 13 14  2  0
 14 15  1  0
 15 16  2  0
 16 17  1  0
 10 18  1  0
 18  4  1  0
 16 11  1  0
  1 19  1  0
  1 20  1  0
  1 21  1  0
  5 22  1  0
  5 23  1  0
  6 24  1  0
  9 25  1  0
 10 26  1  0
 12 27  1  0
 13 28  1  0
 14 29  1  0
 15 30  1  0
 17 31  1  0
 17 32  1  0
 18 33  1  0
 18 34  1  0
M  END
>  <Energy>  (614) 
58.6414704075044

>  <compound_id>  (614) 
3604

>  <target_id>  (614) 
1

>  <reference_id>  (614) 
88

>  <inspiration_ids>  (614) 
[123, 88]

>  <energy_score>  (614) 
35.172217512242156

>  <distance_score>  (614) 
2.2642833791528494

>  <path>  (614) 
/opt/xchem-fragalysis-2/maxwin/BulkDock/SCRATCH/505734/C3604-P88/C3604-P88.minimised.mol

>  <scratch_subdir>  (614) 
/opt/xchem-fragalysis-2/maxwin/BulkDock/SCRATCH/505734/C3604-P88

>  <fragmenstein_runtime>  (614) 
3.5650620460510254

>  <fragmenstein_outcome>  (614) 
too moved

>  <fragmenstein_mode>  (614) 
expansion

>  <fragmenstein_error>  (614) 


$$$$
C3608-P123
     RDKit          3D

 32 33  0  0  0  0  0  0  0  0999 V2000
  -11.8794  -24.5267   33.9463 C   0  0  0  0  0  0  0  0  0  0  0  0
  -10.9469  -24.2672   32.8251 C   0  0  0  0  0  0  0  0  0  0  0  0
   -9.7629  -24.3353   33.0067 O   0  0  0  0  0  0  0  0  0  0  0  0
  -11.6759  -23.8734   31.6898 N   0  0  0  0  0  0  0  0  0  0  0  0
  -11.2408  -23.3372   30.4489 C   0  0  0  0  0  0  0  0  0  0  0  0
  -12.1413  -23.3158   29.2940 C   0  0  0  0  0  0  0  0  0  0  0  0
  -11.3976  -22.9570   28.0524 C   0  0  0  0  0  0  0  0  0  0  0  0
  -11.8512  -22.1584   27.2573 O   0  0  0  0  0  0  0  0  0  0  0  0
  -10.2170  -23.5501   27.8325 O   0  0  0  0  0  0  0  0  0  0  0  0
  -12.6469  -24.6940   29.4600 C   0  0  0  0  0  0  0  0  0  0  0  0
  -12.6117  -25.5287   28.2079 C   0  0  0  0  0  0  0  0  0  0  0  0
  -13.7394  -25.4134   27.3719 C   0  0  0  0  0  0  0  0  0  0  0  0
  -13.7655  -25.8980   26.0820 C   0  0  0  0  0  0  0  0  0  0  0  0
  -12.6409  -26.5278   25.6056 C   0  0  0  0  0  0  0  0  0  0  0  0
  -11.5322  -26.7371   26.4198 C   0  0  0  0  0  0  0  0  0  0  0  0
  -11.5139  -26.2306   27.7158 C   0  0  0  0  0  0  0  0  0  0  0  0
  -10.0347  -26.3354   28.5769 Cl  0  0  0  0  0  0  0  0  0  0  0  0
  -11.9747  -25.0867   30.7983 C   0  0  0  0  0  0  0  0  0  0  0  0
  -12.0312  -23.5883   34.4841 H   0  0  0  0  0  0  0  0  0  0  0  0
  -11.4377  -25.2811   34.5987 H   0  0  0  0  0  0  0  0  0  0  0  0
  -12.8472  -24.8353   33.5976 H   0  0  0  0  0  0  0  0  0  0  0  0
  -10.9817  -22.2982   30.6918 H   0  0  0  0  0  0  0  0  0  0  0  0
  -10.3442  -23.9209   30.2354 H   0  0  0  0  0  0  0  0  0  0  0  0
  -12.9198  -22.5697   29.4694 H   0  0  0  0  0  0  0  0  0  0  0  0
   -9.9436  -24.2785   28.4197 H   0  0  0  0  0  0  0  0  0  0  0  0
  -13.6866  -24.4884   29.6493 H   0  0  0  0  0  0  0  0  0  0  0  0
  -14.6083  -24.8670   27.7037 H   0  0  0  0  0  0  0  0  0  0  0  0
  -14.6304  -25.7377   25.4435 H   0  0  0  0  0  0  0  0  0  0  0  0
  -12.6428  -26.8297   24.5720 H   0  0  0  0  0  0  0  0  0  0  0  0
  -10.6618  -27.2464   26.0169 H   0  0  0  0  0  0  0  0  0  0  0  0
  -12.5677  -25.7830   31.3770 H   0  0  0  0  0  0  0  0  0  0  0  0
  -11.0576  -25.6820   30.7122 H   0  0  0  0  0  0  0  0  0  0  0  0
  1  2  1  0
  2  3  2  0
  2  4  1  0
  4  5  1  0
  5  6  1  0
  6  7  1  0
  7  8  2  0
  7  9  1  0
  6 10  1  0
 10 11  1  0
 11 12  2  0
 12 13  1  0
 13 14  2  0
 14 15  1  0
 15 16  2  0
 16 17  1  0
 10 18  1  0
 18  4  1  0
 16 11  1  0
  1 19  1  0
  1 20  1  0
  1 21  1  0
  5 22  1  0
  5 23  1  0
  6 24  1  0
  9 25  1  0
 10 26  1  0
 12 27  1  0
 13 28  1  0
 14 29  1  0
 15 30  1  0
 18 31  1  0
 18 32  1  0
M  END
>  <Energy>  (615) 
80.376120443053111

>  <compound_id>  (615) 
3608

>  <target_id>  (615) 
1

>  <reference_id>  (615) 
123

>  <inspiration_ids>  (615) 
[123, 104]

>  <energy_score>  (615) 
64.54663787173638

>  <distance_score>  (615) 
2.3762325064944405

>  <path>  (615) 
/opt/xchem-fragalysis-2/maxwin/BulkDock/SCRATCH/505734/C3608-P123/C3608-P123.minimised.mol

>  <scratch_subdir>  (615) 
/opt/xchem-fragalysis-2/maxwin/BulkDock/SCRATCH/505734/C3608-P123

>  <fragmenstein_runtime>  (615) 
7.4599127769470215

>  <fragmenstein_outcome>  (615) 
too moved

>  <fragmenstein_mode>  (615) 
expansion

>  <fragmenstein_error>  (615) 


$$$$
C3608-P104
     RDKit          3D

 32 33  0  0  0  0  0  0  0  0999 V2000
  -11.5541  -25.1744   33.9517 C   0  0  0  0  0  0  0  0  0  0  0  0
  -11.8961  -23.7286   33.6579 C   0  0  0  0  0  0  0  0  0  0  0  0
  -12.0345  -22.9305   34.5233 O   0  0  0  0  0  0  0  0  0  0  0  0
  -11.9017  -23.5759   32.3095 N   0  0  0  0  0  0  0  0  0  0  0  0
  -12.1835  -22.4092   31.4798 C   0  0  0  0  0  0  0  0  0  0  0  0
  -11.7653  -22.6993   30.0603 C   0  0  0  0  0  0  0  0  0  0  0  0
  -11.3971  -21.5249   29.3134 C   0  0  0  0  0  0  0  0  0  0  0  0
  -11.9735  -20.4639   29.4046 O   0  0  0  0  0  0  0  0  0  0  0  0
  -10.4230  -21.7247   28.4321 O   0  0  0  0  0  0  0  0  0  0  0  0
  -10.7345  -23.7189   30.2989 C   0  0  0  0  0  0  0  0  0  0  0  0
  -10.3579  -24.5646   29.0550 C   0  0  0  0  0  0  0  0  0  0  0  0
  -10.9300  -24.3731   27.7647 C   0  0  0  0  0  0  0  0  0  0  0  0
  -10.9860  -25.3853   26.8098 C   0  0  0  0  0  0  0  0  0  0  0  0
  -10.4825  -26.6265   27.1310 C   0  0  0  0  0  0  0  0  0  0  0  0
   -9.8395  -26.8021   28.3471 C   0  0  0  0  0  0  0  0  0  0  0  0
   -9.7666  -25.7914   29.2924 C   0  0  0  0  0  0  0  0  0  0  0  0
   -9.1921  -26.1611   30.8671 Cl  0  0  0  0  0  0  0  0  0  0  0  0
  -10.5090  -23.3155   31.7948 C   0  0  0  0  0  0  0  0  0  0  0  0
  -11.0196  -25.2286   34.8936 H   0  0  0  0  0  0  0  0  0  0  0  0
  -10.7885  -25.5526   33.2770 H   0  0  0  0  0  0  0  0  0  0  0  0
  -12.4462  -25.8007   33.9478 H   0  0  0  0  0  0  0  0  0  0  0  0
  -13.2478  -22.2918   31.6795 H   0  0  0  0  0  0  0  0  0  0  0  0
  -11.8036  -21.4664   31.9121 H   0  0  0  0  0  0  0  0  0  0  0  0
  -12.4814  -23.0604   29.3528 H   0  0  0  0  0  0  0  0  0  0  0  0
  -10.3263  -20.8483   28.0077 H   0  0  0  0  0  0  0  0  0  0  0  0
  -11.0600  -24.6439   30.7200 H   0  0  0  0  0  0  0  0  0  0  0  0
  -11.4574  -23.4670   27.4911 H   0  0  0  0  0  0  0  0  0  0  0  0
  -11.4760  -25.2147   25.8563 H   0  0  0  0  0  0  0  0  0  0  0  0
  -10.5980  -27.4642   26.4537 H   0  0  0  0  0  0  0  0  0  0  0  0
   -9.4358  -27.7584   28.6244 H   0  0  0  0  0  0  0  0  0  0  0  0
   -9.7994  -23.9858   32.2921 H   0  0  0  0  0  0  0  0  0  0  0  0
  -10.1180  -22.3151   32.0287 H   0  0  0  0  0  0  0  0  0  0  0  0
  1  2  1  0
  2  3  2  0
  2  4  1  0
  4  5  1  0
  5  6  1  0
  6  7  1  0
  7  8  2  0
  7  9  1  0
  6 10  1  0
 10 11  1  0
 11 12  2  0
 12 13  1  0
 13 14  2  0
 14 15  1  0
 15 16  2  0
 16 17  1  0
 10 18  1  0
 18  4  1  0
 16 11  1  0
  1 19  1  0
  1 20  1  0
  1 21  1  0
  5 22  1  0
  5 23  1  0
  6 24  1  0
  9 25  1  0
 10 26  1  0
 12 27  1  0
 13 28  1  0
 14 29  1  0
 15 30  1  0
 18 31  1  0
 18 32  1  0
M  END
>  <Energy>  (616) 
132.84891986402684

>  <compound_id>  (616) 
3608

>  <target_id>  (616) 
1

>  <reference_id>  (616) 
104

>  <inspiration_ids>  (616) 
[123, 104]

>  <energy_score>  (616) 
117.01943729270823

>  <distance_score>  (616) 
2.308176288776632

>  <path>  (616) 
/opt/xchem-fragalysis-2/maxwin/BulkDock/SCRATCH/505734/C3608-P104/C3608-P104.minimised.mol

>  <scratch_subdir>  (616) 
/opt/xchem-fragalysis-2/maxwin/BulkDock/SCRATCH/505734/C3608-P104

>  <fragmenstein_runtime>  (616) 
7.132553815841675

>  <fragmenstein_outcome>  (616) 
too moved

>  <fragmenstein_mode>  (616) 
expansion

>  <fragmenstein_error>  (616) 


$$$$
C3609-P123
     RDKit          3D

 62 64  0  0  0  0  0  0  0  0999 V2000
  -11.9832  -24.8281   34.1629 C   0  0  0  0  0  0  0  0  0  0  0  0
  -10.8740  -25.8052   33.9654 C   0  0  0  0  0  0  0  0  0  0  0  0
  -10.5193  -26.3793   34.9751 O   0  0  0  0  0  0  0  0  0  0  0  0
  -10.3524  -26.1373   32.7646 N   0  0  0  0  0  0  0  0  0  0  0  0
  -10.8494  -27.1427   31.8137 C   0  0  0  0  0  0  0  0  0  0  0  0
  -10.3394  -26.5902   30.4666 C   0  0  0  0  0  0  0  0  0  0  0  0
  -11.1898  -26.7915   29.2164 C   0  0  0  0  0  0  0  0  0  0  0  0
  -12.3318  -27.6067   29.1951 C   0  0  0  0  0  0  0  0  0  0  0  0
  -13.0759  -27.8212   28.0276 C   0  0  0  0  0  0  0  0  0  0  0  0
  -12.6855  -27.2230   26.8403 C   0  0  0  0  0  0  0  0  0  0  0  0
  -11.5125  -26.4807   26.8095 C   0  0  0  0  0  0  0  0  0  0  0  0
  -10.7692  -26.2862   27.9831 C   0  0  0  0  0  0  0  0  0  0  0  0
   -9.8032  -25.1505   30.9046 C   0  0  0  0  0  0  0  0  0  0  0  0
  -10.8247  -24.2009   31.5768 C   0  0  0  0  0  0  0  0  0  0  0  0
  -12.0417  -25.0117   31.5733 O   0  0  0  0  0  0  0  0  0  0  0  0
  -11.3059  -22.8661   31.2311 C   0  0  0  0  0  0  0  0  0  0  0  0
  -12.2735  -22.4566   32.4672 C   0  0  0  0  0  0  0  0  0  0  0  0
  -10.5178  -21.7078   31.1840 O   0  0  0  0  0  0  0  0  0  0  0  0
  -11.6718  -23.4498   29.9126 N   0  0  0  0  0  0  0  0  0  0  0  0
  -10.9282  -23.1989   28.7167 C   0  0  0  0  0  0  0  0  0  0  0  0
  -11.1188  -21.7676   28.5040 C   0  0  0  0  0  0  0  0  0  0  0  0
  -12.5068  -21.3095   28.8637 C   0  0  0  0  0  0  0  0  0  0  0  0
  -13.2840  -21.9229   30.0261 C   0  0  0  0  0  0  0  0  0  0  0  0
  -14.6454  -21.5500   30.8243 C   0  0  0  0  0  0  0  0  0  0  0  0
  -13.0871  -23.3657   29.7704 C   0  0  0  0  0  0  0  0  0  0  0  0
  -13.5873  -24.1998   28.5848 C   0  0  0  0  0  0  0  0  0  0  0  0
  -13.2133  -23.8471   27.2716 O   0  0  0  0  0  0  0  0  0  0  0  0
   -9.1607  -25.5154   32.2070 C   0  0  0  0  0  0  0  0  0  0  0  0
  -12.7837  -25.3471   34.6557 H   0  0  0  0  0  0  0  0  0  0  0  0
  -12.5835  -24.5395   33.3440 H   0  0  0  0  0  0  0  0  0  0  0  0
  -11.6831  -23.9747   34.7476 H   0  0  0  0  0  0  0  0  0  0  0  0
  -11.9185  -27.2044   31.8823 H   0  0  0  0  0  0  0  0  0  0  0  0
  -10.4715  -28.1474   32.0022 H   0  0  0  0  0  0  0  0  0  0  0  0
   -9.4684  -27.1969   30.2422 H   0  0  0  0  0  0  0  0  0  0  0  0
  -12.6532  -28.1205   30.0933 H   0  0  0  0  0  0  0  0  0  0  0  0
  -13.9606  -28.4524   28.0532 H   0  0  0  0  0  0  0  0  0  0  0  0
  -13.2900  -27.3456   25.9469 H   0  0  0  0  0  0  0  0  0  0  0  0
  -11.1904  -26.0157   25.8830 H   0  0  0  0  0  0  0  0  0  0  0  0
   -9.8513  -25.7152   27.9354 H   0  0  0  0  0  0  0  0  0  0  0  0
   -9.0954  -24.7603   30.1909 H   0  0  0  0  0  0  0  0  0  0  0  0
  -10.4886  -23.9292   32.5798 H   0  0  0  0  0  0  0  0  0  0  0  0
  -12.2161  -25.1677   30.6336 H   0  0  0  0  0  0  0  0  0  0  0  0
  -13.2107  -23.0028   32.5217 H   0  0  0  0  0  0  0  0  0  0  0  0
  -12.5087  -21.3874   32.5375 H   0  0  0  0  0  0  0  0  0  0  0  0
  -11.7538  -22.5606   33.4089 H   0  0  0  0  0  0  0  0  0  0  0  0
  -10.6728  -21.1195   31.9394 H   0  0  0  0  0  0  0  0  0  0  0  0
  -11.2617  -23.7534   27.8501 H   0  0  0  0  0  0  0  0  0  0  0  0
   -9.8858  -23.5050   28.6737 H   0  0  0  0  0  0  0  0  0  0  0  0
  -10.4104  -21.1980   29.0722 H   0  0  0  0  0  0  0  0  0  0  0  0
  -10.9901  -21.6036   27.4409 H   0  0  0  0  0  0  0  0  0  0  0  0
  -12.9176  -21.7410   27.9809 H   0  0  0  0  0  0  0  0  0  0  0  0
  -12.5509  -20.2424   28.9497 H   0  0  0  0  0  0  0  0  0  0  0  0
  -12.6433  -21.4436   30.7191 H   0  0  0  0  0  0  0  0  0  0  0  0
  -15.4883  -22.1669   30.6886 H   0  0  0  0  0  0  0  0  0  0  0  0
  -14.5082  -21.5525   31.9085 H   0  0  0  0  0  0  0  0  0  0  0  0
  -15.0904  -20.5841   30.6045 H   0  0  0  0  0  0  0  0  0  0  0  0
  -13.4814  -23.8407   30.6193 H   0  0  0  0  0  0  0  0  0  0  0  0
  -14.6556  -24.2556   28.6021 H   0  0  0  0  0  0  0  0  0  0  0  0
  -13.2474  -25.2126   28.7312 H   0  0  0  0  0  0  0  0  0  0  0  0
  -13.3871  -24.6082   26.6952 H   0  0  0  0  0  0  0  0  0  0  0  0
   -8.3511  -26.2164   32.0775 H   0  0  0  0  0  0  0  0  0  0  0  0
   -8.7970  -24.6860   32.8127 H   0  0  0  0  0  0  0  0  0  0  0  0
  1  2  1  0
  2  3  2  0
  2  4  1  0
  4  5  1  0
  5  6  1  0
  6  7  1  0
  7  8  2  0
  8  9  1  0
  9 10  2  0
 10 11  1  0
 11 12  2  0
  6 13  1  0
 13 14  1  0
 14 15  1  0
 14 16  1  0
 16 17  1  0
 16 18  1  0
 16 19  1  0
 19 20  1  0
 20 21  1  0
 21 22  1  0
 22 23  1  0
 23 24  1  0
 23 25  1  0
 25 26  1  0
 26 27  1  0
 13 28  1  0
 28  4  1  0
 12  7  1  0
 25 19  1  0
  1 29  1  0
  1 30  1  0
  1 31  1  0
  5 32  1  0
  5 33  1  0
  6 34  1  0
  8 35  1  0
  9 36  1  0
 10 37  1  0
 11 38  1  0
 12 39  1  0
 13 40  1  0
 14 41  1  0
 15 42  1  0
 17 43  1  0
 17 44  1  0
 17 45  1  0
 18 46  1  0
 20 47  1  0
 20 48  1  0
 21 49  1  0
 21 50  1  0
 22 51  1  0
 22 52  1  0
 23 53  1  0
 24 54  1  0
 24 55  1  0
 24 56  1  0
 25 57  1  0
 26 58  1  0
 26 59  1  0
 27 60  1  0
 28 61  1  0
 28 62  1  0
M  END
>  <Energy>  (617) 
382.31257477851898

>  <compound_id>  (617) 
3609

>  <target_id>  (617) 
1

>  <reference_id>  (617) 
123

>  <inspiration_ids>  (617) 
[123, 110]

>  <energy_score>  (617) 
220.44845211645384

>  <distance_score>  (617) 
2.7099103799015483

>  <path>  (617) 
/opt/xchem-fragalysis-2/maxwin/BulkDock/SCRATCH/505734/C3609-P123/C3609-P123.minimised.mol

>  <scratch_subdir>  (617) 
/opt/xchem-fragalysis-2/maxwin/BulkDock/SCRATCH/505734/C3609-P123

>  <fragmenstein_runtime>  (617) 
18.671424627304077

>  <fragmenstein_outcome>  (617) 
too moved

>  <fragmenstein_mode>  (617) 
expansion

>  <fragmenstein_error>  (617) 


$$$$
C3609-P110
     RDKit          3D

 62 64  0  0  0  0  0  0  0  0999 V2000
  -10.2980  -25.4194   33.5397 C   0  0  0  0  0  0  0  0  0  0  0  0
   -9.4631  -25.4155   32.3044 C   0  0  0  0  0  0  0  0  0  0  0  0
   -8.3455  -24.9367   32.2281 O   0  0  0  0  0  0  0  0  0  0  0  0
  -10.1099  -25.9144   31.2320 N   0  0  0  0  0  0  0  0  0  0  0  0
  -10.0780  -27.2546   30.7412 C   0  0  0  0  0  0  0  0  0  0  0  0
  -10.8374  -27.2255   29.4084 C   0  0  0  0  0  0  0  0  0  0  0  0
  -12.1027  -28.1154   29.2741 C   0  0  0  0  0  0  0  0  0  0  0  0
  -12.5349  -29.0436   30.2616 C   0  0  0  0  0  0  0  0  0  0  0  0
  -13.6821  -29.8290   30.0907 C   0  0  0  0  0  0  0  0  0  0  0  0
  -14.4830  -29.6463   28.9761 C   0  0  0  0  0  0  0  0  0  0  0  0
  -14.0914  -28.7411   28.0014 C   0  0  0  0  0  0  0  0  0  0  0  0
  -12.8720  -28.0534   28.1054 C   0  0  0  0  0  0  0  0  0  0  0  0
  -11.1593  -25.7640   29.1843 C   0  0  0  0  0  0  0  0  0  0  0  0
  -10.6218  -25.0673   27.9543 C   0  0  0  0  0  0  0  0  0  0  0  0
   -9.3639  -24.4759   28.2217 O   0  0  0  0  0  0  0  0  0  0  0  0
  -11.6740  -23.9943   27.4748 C   0  0  0  0  0  0  0  0  0  0  0  0
  -12.5900  -23.5511   28.5576 C   0  0  0  0  0  0  0  0  0  0  0  0
  -11.0039  -22.7680   27.3308 O   0  0  0  0  0  0  0  0  0  0  0  0
  -12.2834  -24.4336   26.2352 N   0  0  0  0  0  0  0  0  0  0  0  0
  -11.5733  -24.0079   25.0659 C   0  0  0  0  0  0  0  0  0  0  0  0
  -12.2949  -22.8544   24.3339 C   0  0  0  0  0  0  0  0  0  0  0  0
  -13.8135  -23.0336   24.1616 C   0  0  0  0  0  0  0  0  0  0  0  0
  -14.4749  -23.7713   25.3195 C   0  0  0  0  0  0  0  0  0  0  0  0
  -15.9650  -24.0634   25.1177 C   0  0  0  0  0  0  0  0  0  0  0  0
  -13.6575  -24.8923   25.9795 C   0  0  0  0  0  0  0  0  0  0  0  0
  -13.7004  -26.2481   25.2066 C   0  0  0  0  0  0  0  0  0  0  0  0
  -14.5086  -26.3440   24.0423 O   0  0  0  0  0  0  0  0  0  0  0  0
  -10.9164  -25.0576   30.4840 C   0  0  0  0  0  0  0  0  0  0  0  0
   -9.6437  -25.3117   34.4026 H   0  0  0  0  0  0  0  0  0  0  0  0
  -11.0393  -24.6188   33.4969 H   0  0  0  0  0  0  0  0  0  0  0  0
  -10.8078  -26.3725   33.6309 H   0  0  0  0  0  0  0  0  0  0  0  0
  -10.5254  -27.8879   31.5040 H   0  0  0  0  0  0  0  0  0  0  0  0
   -9.0379  -27.5569   30.6278 H   0  0  0  0  0  0  0  0  0  0  0  0
  -10.1525  -27.4772   28.6066 H   0  0  0  0  0  0  0  0  0  0  0  0
  -11.9684  -29.1940   31.1736 H   0  0  0  0  0  0  0  0  0  0  0  0
  -13.9635  -30.5547   30.8504 H   0  0  0  0  0  0  0  0  0  0  0  0
  -15.4017  -30.2158   28.8613 H   0  0  0  0  0  0  0  0  0  0  0  0
  -14.7332  -28.6081   27.1342 H   0  0  0  0  0  0  0  0  0  0  0  0
  -12.5320  -27.4275   27.2879 H   0  0  0  0  0  0  0  0  0  0  0  0
  -12.1863  -25.7506   28.9442 H   0  0  0  0  0  0  0  0  0  0  0  0
  -10.4589  -25.7984   27.1539 H   0  0  0  0  0  0  0  0  0  0  0  0
   -9.4707  -23.5443   27.9417 H   0  0  0  0  0  0  0  0  0  0  0  0
  -13.4056  -24.2553   28.6082 H   0  0  0  0  0  0  0  0  0  0  0  0
  -12.9279  -22.5396   28.4269 H   0  0  0  0  0  0  0  0  0  0  0  0
  -12.1038  -23.3940   29.5139 H   0  0  0  0  0  0  0  0  0  0  0  0
  -11.6608  -22.1515   26.9402 H   0  0  0  0  0  0  0  0  0  0  0  0
  -11.3955  -24.9200   24.5173 H   0  0  0  0  0  0  0  0  0  0  0  0
  -10.5380  -23.7760   25.2586 H   0  0  0  0  0  0  0  0  0  0  0  0
  -12.1465  -21.9163   24.8659 H   0  0  0  0  0  0  0  0  0  0  0  0
  -11.8277  -22.6629   23.3613 H   0  0  0  0  0  0  0  0  0  0  0  0
  -14.0486  -23.5134   23.2158 H   0  0  0  0  0  0  0  0  0  0  0  0
  -14.2622  -22.0356   24.0858 H   0  0  0  0  0  0  0  0  0  0  0  0
  -14.4731  -23.0142   26.0670 H   0  0  0  0  0  0  0  0  0  0  0  0
  -16.5073  -23.1369   24.8976 H   0  0  0  0  0  0  0  0  0  0  0  0
  -16.3962  -24.4942   26.0262 H   0  0  0  0  0  0  0  0  0  0  0  0
  -16.1842  -24.7551   24.3074 H   0  0  0  0  0  0  0  0  0  0  0  0
  -14.1296  -25.1244   26.9396 H   0  0  0  0  0  0  0  0  0  0  0  0
  -12.6999  -26.6097   24.9525 H   0  0  0  0  0  0  0  0  0  0  0  0
  -14.1259  -26.9884   25.8776 H   0  0  0  0  0  0  0  0  0  0  0  0
  -14.4485  -25.5255   23.5191 H   0  0  0  0  0  0  0  0  0  0  0  0
  -10.4512  -24.0848   30.4146 H   0  0  0  0  0  0  0  0  0  0  0  0
  -11.8096  -24.9162   31.0770 H   0  0  0  0  0  0  0  0  0  0  0  0
  1  2  1  0
  2  3  2  0
  2  4  1  0
  4  5  1  0
  5  6  1  0
  6  7  1  0
  7  8  2  0
  8  9  1  0
  9 10  2  0
 10 11  1  0
 11 12  2  0
  6 13  1  0
 13 14  1  0
 14 15  1  0
 14 16  1  0
 16 17  1  0
 16 18  1  0
 16 19  1  0
 19 20  1  0
 20 21  1  0
 21 22  1  0
 22 23  1  0
 23 24  1  0
 23 25  1  0
 25 26  1  0
 26 27  1  0
 13 28  1  0
 28  4  1  0
 12  7  1  0
 25 19  1  0
  1 29  1  0
  1 30  1  0
  1 31  1  0
  5 32  1  0
  5 33  1  0
  6 34  1  0
  8 35  1  0
  9 36  1  0
 10 37  1  0
 11 38  1  0
 12 39  1  0
 13 40  1  0
 14 41  1  0
 15 42  1  0
 17 43  1  0
 17 44  1  0
 17 45  1  0
 18 46  1  0
 20 47  1  0
 20 48  1  0
 21 49  1  0
 21 50  1  0
 22 51  1  0
 22 52  1  0
 23 53  1  0
 24 54  1  0
 24 55  1  0
 24 56  1  0
 25 57  1  0
 26 58  1  0
 26 59  1  0
 27 60  1  0
 28 61  1  0
 28 62  1  0
M  END
>  <Energy>  (618) 
161.53842723044329

>  <compound_id>  (618) 
3609

>  <target_id>  (618) 
1

>  <reference_id>  (618) 
110

>  <inspiration_ids>  (618) 
[123, 110]

>  <energy_score>  (618) 
-0.32569543162344416

>  <distance_score>  (618) 
3.897011541501248

>  <path>  (618) 
/opt/xchem-fragalysis-2/maxwin/BulkDock/SCRATCH/505734/C3609-P110/C3609-P110.minimised.mol

>  <scratch_subdir>  (618) 
/opt/xchem-fragalysis-2/maxwin/BulkDock/SCRATCH/505734/C3609-P110

>  <fragmenstein_runtime>  (618) 
25.74637532234192

>  <fragmenstein_outcome>  (618) 
too moved

>  <fragmenstein_mode>  (618) 
expansion

>  <fragmenstein_error>  (618) 


$$$$
C3610-P123
     RDKit          3D

 46 48  0  0  0  0  0  0  0  0999 V2000
  -13.2930  -27.5176   28.2823 C   0  0  0  0  0  0  0  0  0  0  0  0
  -12.6466  -27.8752   29.6019 C   0  0  0  0  0  0  0  0  0  0  0  0
  -12.9381  -28.9567   30.1100 O   0  0  0  0  0  0  0  0  0  0  0  0
  -11.7377  -27.0019   30.1321 N   0  0  0  0  0  0  0  0  0  0  0  0
  -12.0617  -25.9492   31.0746 C   0  0  0  0  0  0  0  0  0  0  0  0
  -10.7578  -25.3030   31.3801 C   0  0  0  0  0  0  0  0  0  0  0  0
  -10.6848  -24.1335   32.2943 C   0  0  0  0  0  0  0  0  0  0  0  0
   -9.5648  -23.7768   32.6517 O   0  0  0  0  0  0  0  0  0  0  0  0
  -11.8035  -23.6247   32.8851 N   0  0  0  0  0  0  0  0  0  0  0  0
  -12.5948  -22.8117   32.2417 C   0  0  0  0  0  0  0  0  0  0  0  0
  -13.5340  -22.0560   32.9617 N   0  0  0  0  0  0  0  0  0  0  0  0
  -14.8467  -21.6753   32.4502 C   0  0  0  0  0  0  0  0  0  0  0  0
  -13.5594  -22.2662   34.3983 C   0  0  0  0  0  0  0  0  0  0  0  0
  -12.5417  -22.6096   30.7219 C   0  0  0  0  0  0  0  0  0  0  0  0
  -11.2732  -22.8711   30.1873 O   0  0  0  0  0  0  0  0  0  0  0  0
  -11.3237  -23.4361   28.9542 C   0  0  0  0  0  0  0  0  0  0  0  0
  -11.8516  -22.7114   27.9038 C   0  0  0  0  0  0  0  0  0  0  0  0
  -11.9625  -23.2883   26.6554 C   0  0  0  0  0  0  0  0  0  0  0  0
  -11.5058  -24.5546   26.4392 C   0  0  0  0  0  0  0  0  0  0  0  0
  -10.8853  -25.2515   27.4674 C   0  0  0  0  0  0  0  0  0  0  0  0
  -10.5171  -26.5550   27.1050 N   0  0  0  0  0  0  0  0  0  0  0  0
  -10.7721  -24.7028   28.7759 C   0  0  0  0  0  0  0  0  0  0  0  0
  -10.0940  -25.3899   29.9978 C   0  0  0  0  0  0  0  0  0  0  0  0
  -10.3066  -26.8973   29.9130 C   0  0  0  0  0  0  0  0  0  0  0  0
  -12.8260  -28.0827   27.4732 H   0  0  0  0  0  0  0  0  0  0  0  0
  -13.2541  -26.4465   28.0868 H   0  0  0  0  0  0  0  0  0  0  0  0
  -14.3463  -27.8150   28.3020 H   0  0  0  0  0  0  0  0  0  0  0  0
  -12.3982  -26.3750   31.9923 H   0  0  0  0  0  0  0  0  0  0  0  0
  -12.7499  -25.2630   30.6070 H   0  0  0  0  0  0  0  0  0  0  0  0
  -10.2224  -26.0114   32.0371 H   0  0  0  0  0  0  0  0  0  0  0  0
  -15.0892  -20.6623   32.7902 H   0  0  0  0  0  0  0  0  0  0  0  0
  -14.9016  -21.6642   31.3601 H   0  0  0  0  0  0  0  0  0  0  0  0
  -15.6333  -22.3276   32.8432 H   0  0  0  0  0  0  0  0  0  0  0  0
  -14.2116  -21.5306   34.8742 H   0  0  0  0  0  0  0  0  0  0  0  0
  -13.9446  -23.2702   34.5847 H   0  0  0  0  0  0  0  0  0  0  0  0
  -12.5722  -22.1590   34.8492 H   0  0  0  0  0  0  0  0  0  0  0  0
  -12.7504  -21.5789   30.4885 H   0  0  0  0  0  0  0  0  0  0  0  0
  -13.3238  -23.2142   30.2593 H   0  0  0  0  0  0  0  0  0  0  0  0
  -12.1275  -21.6806   28.0627 H   0  0  0  0  0  0  0  0  0  0  0  0
  -12.3501  -22.7444   25.8043 H   0  0  0  0  0  0  0  0  0  0  0  0
  -11.5990  -24.9752   25.4451 H   0  0  0  0  0  0  0  0  0  0  0  0
  -10.5726  -26.7540   26.1148 H   0  0  0  0  0  0  0  0  0  0  0  0
  -11.0919  -27.2245   27.5901 H   0  0  0  0  0  0  0  0  0  0  0  0
   -9.0367  -25.1314   30.0207 H   0  0  0  0  0  0  0  0  0  0  0  0
   -9.9180  -27.2786   29.0053 H   0  0  0  0  0  0  0  0  0  0  0  0
   -9.7996  -27.4366   30.7219 H   0  0  0  0  0  0  0  0  0  0  0  0
  1  2  1  0
  2  3  2  0
  2  4  1  0
  4  5  1  0
  5  6  1  0
  6  7  1  0
  7  8  2  0
  7  9  1  0
  9 10  2  3
 10 11  1  0
 11 12  1  0
 11 13  1  0
 10 14  1  0
 14 15  1  0
 15 16  1  0
 16 17  2  0
 17 18  1  0
 18 19  2  0
 19 20  1  0
 20 21  1  0
 20 22  2  0
 22 23  1  0
 23 24  1  0
 24  4  1  0
 23  6  1  0
 22 16  1  0
  1 25  1  0
  1 26  1  0
  1 27  1  0
  5 28  1  0
  5 29  1  0
  6 30  1  0
 12 31  1  0
 12 32  1  0
 12 33  1  0
 13 34  1  0
 13 35  1  0
 13 36  1  0
 14 37  1  0
 14 38  1  0
 17 39  1  0
 18 40  1  0
 19 41  1  0
 21 42  1  0
 21 43  1  0
 23 44  1  0
 24 45  1  0
 24 46  1  0
M  END
>  <Energy>  (619) 
95.795265327211865

>  <compound_id>  (619) 
3610

>  <target_id>  (619) 
1

>  <reference_id>  (619) 
123

>  <inspiration_ids>  (619) 
[123, 115]

>  <energy_score>  (619) 
12.372659254498046

>  <distance_score>  (619) 
2.733983748279188

>  <path>  (619) 
/opt/xchem-fragalysis-2/maxwin/BulkDock/SCRATCH/505734/C3610-P123/C3610-P123.minimised.mol

>  <scratch_subdir>  (619) 
/opt/xchem-fragalysis-2/maxwin/BulkDock/SCRATCH/505734/C3610-P123

>  <fragmenstein_runtime>  (619) 
5.899197578430176

>  <fragmenstein_outcome>  (619) 
too moved

>  <fragmenstein_mode>  (619) 
expansion

>  <fragmenstein_error>  (619) 


$$$$
C3610-P115
     RDKit          3D

 46 48  0  0  0  0  0  0  0  0999 V2000
   -9.0136  -25.2625   29.9364 C   0  0  0  0  0  0  0  0  0  0  0  0
   -8.9738  -25.0690   31.4666 C   0  0  0  0  0  0  0  0  0  0  0  0
   -7.9922  -25.3410   32.1399 O   0  0  0  0  0  0  0  0  0  0  0  0
  -10.0783  -24.6062   32.0918 N   0  0  0  0  0  0  0  0  0  0  0  0
  -11.3124  -25.3915   32.6911 C   0  0  0  0  0  0  0  0  0  0  0  0
  -11.6953  -24.4258   33.6298 C   0  0  0  0  0  0  0  0  0  0  0  0
  -10.4453  -24.8921   34.5104 C   0  0  0  0  0  0  0  0  0  0  0  0
  -10.0469  -24.0364   35.3065 O   0  0  0  0  0  0  0  0  0  0  0  0
   -9.8331  -26.2186   34.4470 N   0  0  0  0  0  0  0  0  0  0  0  0
   -9.6155  -27.1653   33.5040 C   0  0  0  0  0  0  0  0  0  0  0  0
   -9.0216  -28.3805   33.9226 N   0  0  0  0  0  0  0  0  0  0  0  0
   -9.0477  -28.7640   35.3289 C   0  0  0  0  0  0  0  0  0  0  0  0
   -7.7578  -28.7652   33.2973 C   0  0  0  0  0  0  0  0  0  0  0  0
  -10.1047  -27.2956   31.7274 C   0  0  0  0  0  0  0  0  0  0  0  0
  -11.2652  -26.8096   30.8083 O   0  0  0  0  0  0  0  0  0  0  0  0
  -11.6165  -25.5823   30.1069 C   0  0  0  0  0  0  0  0  0  0  0  0
  -11.6814  -25.8825   28.7345 C   0  0  0  0  0  0  0  0  0  0  0  0
  -11.6234  -24.8511   27.8021 C   0  0  0  0  0  0  0  0  0  0  0  0
  -11.6009  -23.5045   28.2132 C   0  0  0  0  0  0  0  0  0  0  0  0
  -11.7342  -23.1001   29.5690 C   0  0  0  0  0  0  0  0  0  0  0  0
  -11.9151  -21.7255   29.8082 N   0  0  0  0  0  0  0  0  0  0  0  0
  -11.8183  -24.1012   30.5761 C   0  0  0  0  0  0  0  0  0  0  0  0
  -11.7726  -23.4640   32.3068 C   0  0  0  0  0  0  0  0  0  0  0  0
  -10.3327  -23.2038   32.3336 C   0  0  0  0  0  0  0  0  0  0  0  0
   -9.3634  -26.2289   29.5897 H   0  0  0  0  0  0  0  0  0  0  0  0
   -9.5192  -24.4886   29.3911 H   0  0  0  0  0  0  0  0  0  0  0  0
   -8.0450  -25.2312   29.5003 H   0  0  0  0  0  0  0  0  0  0  0  0
  -11.3412  -26.3554   33.1162 H   0  0  0  0  0  0  0  0  0  0  0  0
  -12.1982  -25.5378   32.1102 H   0  0  0  0  0  0  0  0  0  0  0  0
  -12.6044  -24.5987   34.1856 H   0  0  0  0  0  0  0  0  0  0  0  0
   -8.1957  -28.3493   35.8731 H   0  0  0  0  0  0  0  0  0  0  0  0
   -8.9941  -29.8551   35.4147 H   0  0  0  0  0  0  0  0  0  0  0  0
   -9.9776  -28.4577   35.8124 H   0  0  0  0  0  0  0  0  0  0  0  0
   -7.7824  -28.6109   32.2219 H   0  0  0  0  0  0  0  0  0  0  0  0
   -6.9332  -28.1919   33.7313 H   0  0  0  0  0  0  0  0  0  0  0  0
   -7.5578  -29.8294   33.4641 H   0  0  0  0  0  0  0  0  0  0  0  0
   -9.1863  -27.3542   31.1546 H   0  0  0  0  0  0  0  0  0  0  0  0
  -10.3221  -28.3745   31.7191 H   0  0  0  0  0  0  0  0  0  0  0  0
  -11.6259  -26.9113   28.3897 H   0  0  0  0  0  0  0  0  0  0  0  0
  -11.5937  -25.0799   26.7397 H   0  0  0  0  0  0  0  0  0  0  0  0
  -11.5845  -22.7450   27.4316 H   0  0  0  0  0  0  0  0  0  0  0  0
  -11.5525  -21.1609   29.0343 H   0  0  0  0  0  0  0  0  0  0  0  0
  -11.5871  -21.3961   30.7051 H   0  0  0  0  0  0  0  0  0  0  0  0
  -12.4211  -22.5905   32.4101 H   0  0  0  0  0  0  0  0  0  0  0  0
  -10.1786  -22.4537   31.5913 H   0  0  0  0  0  0  0  0  0  0  0  0
   -9.8932  -22.8350   33.2629 H   0  0  0  0  0  0  0  0  0  0  0  0
  1  2  1  0
  2  3  2  0
  2  4  1  0
  4  5  1  0
  5  6  1  0
  6  7  1  0
  7  8  2  0
  7  9  1  0
  9 10  2  3
 10 11  1  0
 11 12  1  0
 11 13  1  0
 10 14  1  0
 14 15  1  0
 15 16  1  0
 16 17  2  0
 17 18  1  0
 18 19  2  0
 19 20  1  0
 20 21  1  0
 20 22  2  0
 22 23  1  0
 23 24  1  0
 24  4  1  0
 23  6  1  0
 22 16  1  0
  1 25  1  0
  1 26  1  0
  1 27  1  0
  5 28  1  0
  5 29  1  0
  6 30  1  0
 12 31  1  0
 12 32  1  0
 12 33  1  0
 13 34  1  0
 13 35  1  0
 13 36  1  0
 14 37  1  0
 14 38  1  0
 17 39  1  0
 18 40  1  0
 19 41  1  0
 21 42  1  0
 21 43  1  0
 23 44  1  0
 24 45  1  0
 24 46  1  0
M  END
>  <Energy>  (620) 
436.83885390903458

>  <compound_id>  (620) 
3610

>  <target_id>  (620) 
1

>  <reference_id>  (620) 
115

>  <inspiration_ids>  (620) 
[123, 115]

>  <energy_score>  (620) 
344.95050250449157

>  <distance_score>  (620) 
1.8652102528974868

>  <path>  (620) 
/opt/xchem-fragalysis-2/maxwin/BulkDock/SCRATCH/505734/C3610-P115/C3610-P115.minimised.mol

>  <scratch_subdir>  (620) 
/opt/xchem-fragalysis-2/maxwin/BulkDock/SCRATCH/505734/C3610-P115

>  <fragmenstein_runtime>  (620) 
8.76068377494812

>  <fragmenstein_outcome>  (620) 
too moved

>  <fragmenstein_mode>  (620) 
expansion

>  <fragmenstein_error>  (620) 


$$$$
C3611-P123
     RDKit          3D

 43 44  0  0  0  0  0  0  0  0999 V2000
  -13.6400  -21.8520   35.3120 C   0  0  0  0  0  0  0  0  0  0  0  0
  -13.2346  -21.8692   33.8556 C   0  0  0  0  0  0  0  0  0  0  0  0
  -12.3710  -23.0046   33.5825 N   0  0  0  0  0  0  0  0  0  0  0  0
  -12.1220  -23.1036   32.1571 C   0  0  0  0  0  0  0  0  0  0  0  0
  -11.3202  -24.3241   31.8218 C   0  0  0  0  0  0  0  0  0  0  0  0
  -10.0644  -24.4755   32.3727 C   0  0  0  0  0  0  0  0  0  0  0  0
   -9.3166  -25.5719   32.0266 C   0  0  0  0  0  0  0  0  0  0  0  0
   -9.9072  -26.6351   31.3444 C   0  0  0  0  0  0  0  0  0  0  0  0
  -11.1811  -26.5371   30.8663 C   0  0  0  0  0  0  0  0  0  0  0  0
  -11.6816  -25.2499   30.8222 C   0  0  0  0  0  0  0  0  0  0  0  0
  -11.6072  -24.7168   29.4146 C   0  0  0  0  0  0  0  0  0  0  0  0
  -11.9715  -25.6136   28.2429 C   0  0  0  0  0  0  0  0  0  0  0  0
  -11.9993  -24.7378   27.0492 N   0  0  0  0  0  0  0  0  0  0  0  0
  -12.4800  -24.9651   25.7570 C   0  0  0  0  0  0  0  0  0  0  0  0
  -12.1775  -23.6753   25.0024 C   0  0  0  0  0  0  0  0  0  0  0  0
  -13.0765  -25.8993   25.2993 O   0  0  0  0  0  0  0  0  0  0  0  0
  -13.0130  -24.0407   27.8531 C   0  0  0  0  0  0  0  0  0  0  0  0
  -12.4577  -23.5446   29.1318 C   0  0  0  0  0  0  0  0  0  0  0  0
  -11.6203  -22.3447   28.8593 C   0  0  0  0  0  0  0  0  0  0  0  0
  -10.5268  -22.3346   28.3326 O   0  0  0  0  0  0  0  0  0  0  0  0
  -12.2086  -21.1892   29.1716 O   0  0  0  0  0  0  0  0  0  0  0  0
  -14.2660  -22.7148   35.5570 H   0  0  0  0  0  0  0  0  0  0  0  0
  -14.2250  -20.9516   35.5274 H   0  0  0  0  0  0  0  0  0  0  0  0
  -12.7671  -21.8428   35.9692 H   0  0  0  0  0  0  0  0  0  0  0  0
  -12.7034  -20.9397   33.6276 H   0  0  0  0  0  0  0  0  0  0  0  0
  -14.1439  -21.8987   33.2437 H   0  0  0  0  0  0  0  0  0  0  0  0
  -12.8065  -23.8656   33.9196 H   0  0  0  0  0  0  0  0  0  0  0  0
  -11.5885  -22.2170   31.7942 H   0  0  0  0  0  0  0  0  0  0  0  0
  -13.0886  -23.1360   31.6713 H   0  0  0  0  0  0  0  0  0  0  0  0
   -9.6359  -23.7293   33.0211 H   0  0  0  0  0  0  0  0  0  0  0  0
   -8.3078  -25.6737   32.4004 H   0  0  0  0  0  0  0  0  0  0  0  0
   -9.3614  -27.5626   31.2179 H   0  0  0  0  0  0  0  0  0  0  0  0
  -11.5694  -27.3398   30.2519 H   0  0  0  0  0  0  0  0  0  0  0  0
  -10.5410  -24.4810   29.2669 H   0  0  0  0  0  0  0  0  0  0  0  0
  -12.8664  -26.2490   28.3509 H   0  0  0  0  0  0  0  0  0  0  0  0
  -11.1612  -26.3302   28.0479 H   0  0  0  0  0  0  0  0  0  0  0  0
  -13.0354  -23.3872   24.3882 H   0  0  0  0  0  0  0  0  0  0  0  0
  -12.0030  -22.8422   25.6810 H   0  0  0  0  0  0  0  0  0  0  0  0
  -11.2647  -23.7946   24.4189 H   0  0  0  0  0  0  0  0  0  0  0  0
  -13.9653  -24.5924   27.9279 H   0  0  0  0  0  0  0  0  0  0  0  0
  -13.2386  -23.1554   27.2744 H   0  0  0  0  0  0  0  0  0  0  0  0
  -13.2806  -23.3167   29.7983 H   0  0  0  0  0  0  0  0  0  0  0  0
  -11.6133  -20.5599   28.6820 H   0  0  0  0  0  0  0  0  0  0  0  0
  1  2  1  0
  2  3  1  0
  3  4  1  0
  4  5  1  0
  5  6  2  0
  6  7  1  0
  7  8  2  0
  8  9  1  0
  9 10  2  0
 10 11  1  0
 11 12  1  0
 12 13  1  0
 13 14  1  0
 14 15  1  0
 14 16  2  0
 13 17  1  0
 17 18  1  0
 18 19  1  0
 19 20  2  0
 19 21  1  0
 10  5  1  0
 18 11  1  0
  1 22  1  0
  1 23  1  0
  1 24  1  0
  2 25  1  0
  2 26  1  0
  3 27  1  0
  4 28  1  0
  4 29  1  0
  6 30  1  0
  7 31  1  0
  8 32  1  0
  9 33  1  0
 11 34  1  0
 12 35  1  0
 12 36  1  0
 15 37  1  0
 15 38  1  0
 15 39  1  0
 17 40  1  0
 17 41  1  0
 18 42  1  0
 21 43  1  0
M  END
>  <Energy>  (621) 
98.122687082403928

>  <compound_id>  (621) 
3611

>  <target_id>  (621) 
1

>  <reference_id>  (621) 
123

>  <inspiration_ids>  (621) 
[123, 119]

>  <energy_score>  (621) 
69.71947526691014

>  <distance_score>  (621) 
2.624076715131031

>  <path>  (621) 
/opt/xchem-fragalysis-2/maxwin/BulkDock/SCRATCH/505734/C3611-P123/C3611-P123.minimised.mol

>  <scratch_subdir>  (621) 
/opt/xchem-fragalysis-2/maxwin/BulkDock/SCRATCH/505734/C3611-P123

>  <fragmenstein_runtime>  (621) 
9.795475721359253

>  <fragmenstein_outcome>  (621) 
too moved

>  <fragmenstein_mode>  (621) 
expansion

>  <fragmenstein_error>  (621) 


$$$$
C3611-P119
     RDKit          3D

 43 44  0  0  0  0  0  0  0  0999 V2000
   -9.4795  -25.7911   32.4856 C   0  0  0  0  0  0  0  0  0  0  0  0
  -10.3971  -25.0127   31.6071 C   0  0  0  0  0  0  0  0  0  0  0  0
  -10.9076  -23.9831   32.4972 N   0  0  0  0  0  0  0  0  0  0  0  0
  -11.5281  -22.7501   32.0790 C   0  0  0  0  0  0  0  0  0  0  0  0
  -10.3521  -21.8981   31.7503 C   0  0  0  0  0  0  0  0  0  0  0  0
   -9.7350  -21.4573   32.9255 C   0  0  0  0  0  0  0  0  0  0  0  0
   -8.5718  -22.1159   33.2780 C   0  0  0  0  0  0  0  0  0  0  0  0
   -7.9413  -22.9439   32.3720 C   0  0  0  0  0  0  0  0  0  0  0  0
   -8.4203  -23.0605   31.0712 C   0  0  0  0  0  0  0  0  0  0  0  0
   -9.6448  -22.5332   30.7230 C   0  0  0  0  0  0  0  0  0  0  0  0
  -10.1459  -22.6456   29.3353 C   0  0  0  0  0  0  0  0  0  0  0  0
  -10.2602  -23.9325   28.5310 C   0  0  0  0  0  0  0  0  0  0  0  0
  -10.8228  -23.4524   27.2450 N   0  0  0  0  0  0  0  0  0  0  0  0
  -11.2650  -24.1463   26.1271 C   0  0  0  0  0  0  0  0  0  0  0  0
  -11.6798  -23.0152   25.1598 C   0  0  0  0  0  0  0  0  0  0  0  0
  -11.3913  -25.3248   25.9386 O   0  0  0  0  0  0  0  0  0  0  0  0
  -11.9649  -23.1157   28.1226 C   0  0  0  0  0  0  0  0  0  0  0  0
  -11.5105  -22.0903   29.0977 C   0  0  0  0  0  0  0  0  0  0  0  0
  -11.2904  -20.7898   28.4897 C   0  0  0  0  0  0  0  0  0  0  0  0
  -11.1242  -20.6063   27.3084 O   0  0  0  0  0  0  0  0  0  0  0  0
  -11.2051  -19.7802   29.3552 O   0  0  0  0  0  0  0  0  0  0  0  0
   -9.4382  -25.3501   33.4628 H   0  0  0  0  0  0  0  0  0  0  0  0
   -8.4655  -25.7835   32.0890 H   0  0  0  0  0  0  0  0  0  0  0  0
   -9.8470  -26.7784   32.7201 H   0  0  0  0  0  0  0  0  0  0  0  0
  -11.1338  -25.6453   31.1300 H   0  0  0  0  0  0  0  0  0  0  0  0
   -9.7979  -24.7747   30.7504 H   0  0  0  0  0  0  0  0  0  0  0  0
  -10.2094  -23.7385   33.1910 H   0  0  0  0  0  0  0  0  0  0  0  0
  -12.1241  -22.2869   32.8745 H   0  0  0  0  0  0  0  0  0  0  0  0
  -12.1660  -22.9146   31.2486 H   0  0  0  0  0  0  0  0  0  0  0  0
  -10.3447  -20.9823   33.6906 H   0  0  0  0  0  0  0  0  0  0  0  0
   -8.2033  -22.1307   34.2898 H   0  0  0  0  0  0  0  0  0  0  0  0
   -7.0744  -23.4861   32.7084 H   0  0  0  0  0  0  0  0  0  0  0  0
   -7.9115  -23.5884   30.2869 H   0  0  0  0  0  0  0  0  0  0  0  0
   -9.4061  -22.0652   28.7566 H   0  0  0  0  0  0  0  0  0  0  0  0
   -9.2637  -24.3252   28.3039 H   0  0  0  0  0  0  0  0  0  0  0  0
  -10.7879  -24.8033   28.9481 H   0  0  0  0  0  0  0  0  0  0  0  0
  -12.7055  -23.1710   24.8092 H   0  0  0  0  0  0  0  0  0  0  0  0
  -11.7297  -22.0437   25.6355 H   0  0  0  0  0  0  0  0  0  0  0  0
  -10.9530  -22.9065   24.3554 H   0  0  0  0  0  0  0  0  0  0  0  0
  -12.5009  -23.9865   28.5386 H   0  0  0  0  0  0  0  0  0  0  0  0
  -12.7005  -22.6846   27.4481 H   0  0  0  0  0  0  0  0  0  0  0  0
  -12.2848  -21.9213   29.8329 H   0  0  0  0  0  0  0  0  0  0  0  0
  -10.9158  -19.1069   28.6895 H   0  0  0  0  0  0  0  0  0  0  0  0
  1  2  1  0
  2  3  1  0
  3  4  1  0
  4  5  1  0
  5  6  2  0
  6  7  1  0
  7  8  2  0
  8  9  1  0
  9 10  2  0
 10 11  1  0
 11 12  1  0
 12 13  1  0
 13 14  1  0
 14 15  1  0
 14 16  2  0
 13 17  1  0
 17 18  1  0
 18 19  1  0
 19 20  2  0
 19 21  1  0
 10  5  1  0
 18 11  1  0
  1 22  1  0
  1 23  1  0
  1 24  1  0
  2 25  1  0
  2 26  1  0
  3 27  1  0
  4 28  1  0
  4 29  1  0
  6 30  1  0
  7 31  1  0
  8 32  1  0
  9 33  1  0
 11 34  1  0
 12 35  1  0
 12 36  1  0
 15 37  1  0
 15 38  1  0
 15 39  1  0
 17 40  1  0
 17 41  1  0
 18 42  1  0
 21 43  1  0
M  END
>  <Energy>  (622) 
170.54058421474693

>  <compound_id>  (622) 
3611

>  <target_id>  (622) 
1

>  <reference_id>  (622) 
119

>  <inspiration_ids>  (622) 
[123, 119]

>  <energy_score>  (622) 
142.13737239926027

>  <distance_score>  (622) 
1.7472283296243654

>  <path>  (622) 
/opt/xchem-fragalysis-2/maxwin/BulkDock/SCRATCH/505734/C3611-P119/C3611-P119.minimised.mol

>  <scratch_subdir>  (622) 
/opt/xchem-fragalysis-2/maxwin/BulkDock/SCRATCH/505734/C3611-P119

>  <fragmenstein_runtime>  (622) 
5.646169424057007

>  <fragmenstein_outcome>  (622) 
too moved

>  <fragmenstein_mode>  (622) 
expansion

>  <fragmenstein_error>  (622) 


$$$$
C3612-P123
     RDKit          3D

 53 54  0  0  0  0  0  0  0  0999 V2000
  -22.6040  -19.9693   34.2079 C   0  0  0  0  0  0  0  0  0  0  0  0
  -21.3920  -19.7063   33.3388 C   0  0  0  0  0  0  0  0  0  0  0  0
  -21.3143  -18.6866   32.7043 O   0  0  0  0  0  0  0  0  0  0  0  0
  -20.4993  -20.8071   33.4301 N   0  0  0  0  0  0  0  0  0  0  0  0
  -19.5208  -20.5968   34.5628 C   0  0  0  0  0  0  0  0  0  0  0  0
  -18.6581  -21.8218   34.7773 C   0  0  0  0  0  0  0  0  0  0  0  0
  -18.4307  -22.1996   33.3509 C   0  0  0  0  0  0  0  0  0  0  0  0
  -16.9768  -22.1854   32.9881 C   0  0  0  0  0  0  0  0  0  0  0  0
  -16.3422  -23.2672   33.4799 O   0  0  0  0  0  0  0  0  0  0  0  0
  -16.4210  -21.2542   32.2881 N   0  0  0  0  0  0  0  0  0  0  0  0
  -15.0584  -21.2696   32.2341 C   0  0  0  0  0  0  0  0  0  0  0  0
  -14.4131  -20.8954   33.1629 O   0  0  0  0  0  0  0  0  0  0  0  0
  -14.6648  -21.6855   30.9421 N   0  0  0  0  0  0  0  0  0  0  0  0
  -13.2926  -21.8903   30.3370 C   0  0  0  0  0  0  0  0  0  0  0  0
  -12.0802  -21.7743   31.2173 C   0  0  0  0  0  0  0  0  0  0  0  0
  -12.1429  -23.0138   31.8937 C   0  0  0  0  0  0  0  0  0  0  0  0
  -12.5835  -23.1776   33.1755 C   0  0  0  0  0  0  0  0  0  0  0  0
  -12.6210  -24.5046   33.3335 N   0  0  0  0  0  0  0  0  0  0  0  0
  -11.9375  -25.0898   32.2739 C   0  0  0  0  0  0  0  0  0  0  0  0
  -11.0717  -26.2325   32.4502 C   0  0  0  0  0  0  0  0  0  0  0  0
  -10.4803  -25.9155   33.8172 C   0  0  0  0  0  0  0  0  0  0  0  0
   -9.1404  -25.2689   33.6192 C   0  0  0  0  0  0  0  0  0  0  0  0
   -9.2288  -24.0175   32.8290 C   0  0  0  0  0  0  0  0  0  0  0  0
   -8.2553  -23.1713   33.2080 F   0  0  0  0  0  0  0  0  0  0  0  0
  -11.8857  -24.2264   31.2434 C   0  0  0  0  0  0  0  0  0  0  0  0
  -19.2330  -21.1050   32.6870 C   0  0  0  0  0  0  0  0  0  0  0  0
  -22.6096  -20.9882   34.6059 H   0  0  0  0  0  0  0  0  0  0  0  0
  -23.5081  -19.8319   33.6080 H   0  0  0  0  0  0  0  0  0  0  0  0
  -22.6038  -19.2632   35.0427 H   0  0  0  0  0  0  0  0  0  0  0  0
  -20.1173  -20.4309   35.4710 H   0  0  0  0  0  0  0  0  0  0  0  0
  -18.9496  -19.6583   34.4470 H   0  0  0  0  0  0  0  0  0  0  0  0
  -17.7581  -21.5928   35.3562 H   0  0  0  0  0  0  0  0  0  0  0  0
  -19.2186  -22.6052   35.2999 H   0  0  0  0  0  0  0  0  0  0  0  0
  -18.8507  -23.1878   33.1293 H   0  0  0  0  0  0  0  0  0  0  0  0
  -15.6132  -23.5320   32.8662 H   0  0  0  0  0  0  0  0  0  0  0  0
  -15.4824  -22.0152   30.4400 H   0  0  0  0  0  0  0  0  0  0  0  0
  -13.0665  -21.1609   29.5494 H   0  0  0  0  0  0  0  0  0  0  0  0
  -13.3577  -22.8447   29.7946 H   0  0  0  0  0  0  0  0  0  0  0  0
  -12.0628  -20.9742   31.9522 H   0  0  0  0  0  0  0  0  0  0  0  0
  -11.1745  -21.6825   30.6115 H   0  0  0  0  0  0  0  0  0  0  0  0
  -12.8747  -22.4930   33.9611 H   0  0  0  0  0  0  0  0  0  0  0  0
  -12.8415  -24.9262   34.2299 H   0  0  0  0  0  0  0  0  0  0  0  0
  -11.5633  -27.1961   32.3514 H   0  0  0  0  0  0  0  0  0  0  0  0
  -10.3018  -26.2744   31.6676 H   0  0  0  0  0  0  0  0  0  0  0  0
  -11.0026  -25.2564   34.5098 H   0  0  0  0  0  0  0  0  0  0  0  0
  -10.5659  -26.8084   34.4201 H   0  0  0  0  0  0  0  0  0  0  0  0
   -8.4257  -25.8384   33.0215 H   0  0  0  0  0  0  0  0  0  0  0  0
   -8.7045  -25.1571   34.6119 H   0  0  0  0  0  0  0  0  0  0  0  0
   -9.1385  -24.2576   31.7712 H   0  0  0  0  0  0  0  0  0  0  0  0
  -10.1306  -23.4829   33.0089 H   0  0  0  0  0  0  0  0  0  0  0  0
  -11.4528  -24.3815   30.2640 H   0  0  0  0  0  0  0  0  0  0  0  0
  -19.5643  -21.4609   31.7012 H   0  0  0  0  0  0  0  0  0  0  0  0
  -18.6933  -20.1732   32.4455 H   0  0  0  0  0  0  0  0  0  0  0  0
  1  2  1  0
  2  3  2  0
  2  4  1  0
  4  5  1  0
  5  6  1  0
  6  7  1  0
  7  8  1  0
  8  9  1  0
  8 10  2  3
 10 11  1  0
 11 12  2  0
 11 13  1  0
 13 14  1  0
 14 15  1  0
 15 16  1  0
 16 17  2  0
 17 18  1  0
 18 19  1  0
 19 20  1  0
 20 21  1  0
 21 22  1  0
 22 23  1  0
 23 24  1  0
 19 25  2  0
  7 26  1  0
 26  4  1  0
 25 16  1  0
  1 27  1  0
  1 28  1  0
  1 29  1  0
  5 30  1  0
  5 31  1  0
  6 32  1  0
  6 33  1  0
  7 34  1  0
  9 35  1  0
 13 36  1  0
 14 37  1  0
 14 38  1  0
 15 39  1  0
 15 40  1  0
 17 41  1  0
 18 42  1  0
 20 43  1  0
 20 44  1  0
 21 45  1  0
 21 46  1  0
 22 47  1  0
 22 48  1  0
 23 49  1  0
 23 50  1  0
 25 51  1  0
 26 52  1  0
 26 53  1  0
M  END
>  <Energy>  (623) 
45.793384228307396

>  <compound_id>  (623) 
3612

>  <target_id>  (623) 
1

>  <reference_id>  (623) 
123

>  <inspiration_ids>  (623) 
[123, 161]

>  <energy_score>  (623) 
78.70694961404917

>  <distance_score>  (623) 
4.622395300439398

>  <path>  (623) 
/opt/xchem-fragalysis-2/maxwin/BulkDock/SCRATCH/505734/C3612-P123/C3612-P123.minimised.mol

>  <scratch_subdir>  (623) 
/opt/xchem-fragalysis-2/maxwin/BulkDock/SCRATCH/505734/C3612-P123

>  <fragmenstein_runtime>  (623) 
12.556465148925781

>  <fragmenstein_outcome>  (623) 
too moved

>  <fragmenstein_mode>  (623) 
expansion

>  <fragmenstein_error>  (623) 


$$$$
C3612-P161
     RDKit          3D

 53 54  0  0  0  0  0  0  0  0999 V2000
  -18.1487  -29.8933   32.2799 C   0  0  0  0  0  0  0  0  0  0  0  0
  -17.0485  -29.7869   31.2443 C   0  0  0  0  0  0  0  0  0  0  0  0
  -16.4268  -30.7642   30.9189 O   0  0  0  0  0  0  0  0  0  0  0  0
  -16.9394  -28.4351   30.8140 N   0  0  0  0  0  0  0  0  0  0  0  0
  -17.8471  -28.1853   29.6403 C   0  0  0  0  0  0  0  0  0  0  0  0
  -17.8835  -26.7100   29.3093 C   0  0  0  0  0  0  0  0  0  0  0  0
  -16.4169  -26.4258   29.3802 C   0  0  0  0  0  0  0  0  0  0  0  0
  -15.7492  -26.0965   28.0567 C   0  0  0  0  0  0  0  0  0  0  0  0
  -16.3520  -26.6333   26.9814 O   0  0  0  0  0  0  0  0  0  0  0  0
  -14.6903  -25.3974   27.8104 N   0  0  0  0  0  0  0  0  0  0  0  0
  -13.9797  -24.8809   28.8646 C   0  0  0  0  0  0  0  0  0  0  0  0
  -14.0559  -25.3612   29.9461 O   0  0  0  0  0  0  0  0  0  0  0  0
  -13.1950  -23.8130   28.3834 N   0  0  0  0  0  0  0  0  0  0  0  0
  -12.1599  -23.0208   29.0289 C   0  0  0  0  0  0  0  0  0  0  0  0
  -12.4549  -22.3530   30.3882 C   0  0  0  0  0  0  0  0  0  0  0  0
  -12.2849  -23.2272   31.5737 C   0  0  0  0  0  0  0  0  0  0  0  0
  -13.3112  -23.9318   32.1136 C   0  0  0  0  0  0  0  0  0  0  0  0
  -12.8232  -25.0527   32.7033 N   0  0  0  0  0  0  0  0  0  0  0  0
  -11.2031  -25.1656   32.9625 C   0  0  0  0  0  0  0  0  0  0  0  0
  -10.3423  -27.0553   33.6611 C   0  0  0  0  0  0  0  0  0  0  0  0
   -9.2786  -26.4507   35.6727 C   0  0  0  0  0  0  0  0  0  0  0  0
  -10.0204  -24.5696   36.1373 C   0  0  0  0  0  0  0  0  0  0  0  0
  -10.4297  -22.7254   35.6211 C   0  0  0  0  0  0  0  0  0  0  0  0
  -10.2819  -21.8582   36.6570 F   0  0  0  0  0  0  0  0  0  0  0  0
  -11.1152  -23.5326   32.3702 C   0  0  0  0  0  0  0  0  0  0  0  0
  -15.9442  -27.7711   29.9006 C   0  0  0  0  0  0  0  0  0  0  0  0
  -17.7831  -30.4746   33.1310 H   0  0  0  0  0  0  0  0  0  0  0  0
  -19.0114  -30.3961   31.8349 H   0  0  0  0  0  0  0  0  0  0  0  0
  -18.4583  -28.9105   32.6474 H   0  0  0  0  0  0  0  0  0  0  0  0
  -17.6212  -28.8438   28.7828 H   0  0  0  0  0  0  0  0  0  0  0  0
  -18.8569  -28.4909   29.9489 H   0  0  0  0  0  0  0  0  0  0  0  0
  -18.3726  -26.5042   28.3540 H   0  0  0  0  0  0  0  0  0  0  0  0
  -18.4217  -26.1586   30.0899 H   0  0  0  0  0  0  0  0  0  0  0  0
  -16.2769  -25.6261   30.1104 H   0  0  0  0  0  0  0  0  0  0  0  0
  -15.8359  -26.3659   26.2016 H   0  0  0  0  0  0  0  0  0  0  0  0
  -13.3276  -23.7326   27.3847 H   0  0  0  0  0  0  0  0  0  0  0  0
  -11.9334  -22.2258   28.3096 H   0  0  0  0  0  0  0  0  0  0  0  0
  -11.2823  -23.6579   29.0777 H   0  0  0  0  0  0  0  0  0  0  0  0
  -11.7908  -21.4943   30.5011 H   0  0  0  0  0  0  0  0  0  0  0  0
  -13.4868  -22.0048   30.3841 H   0  0  0  0  0  0  0  0  0  0  0  0
  -14.3717  -23.8935   31.9043 H   0  0  0  0  0  0  0  0  0  0  0  0
  -13.3916  -25.8572   32.8410 H   0  0  0  0  0  0  0  0  0  0  0  0
  -11.3182  -27.4222   33.8997 H   0  0  0  0  0  0  0  0  0  0  0  0
   -9.5015  -27.7271   33.5307 H   0  0  0  0  0  0  0  0  0  0  0  0
   -9.9797  -26.5545   36.5029 H   0  0  0  0  0  0  0  0  0  0  0  0
   -8.4191  -27.0113   36.1799 H   0  0  0  0  0  0  0  0  0  0  0  0
   -9.7003  -24.1634   35.2172 H   0  0  0  0  0  0  0  0  0  0  0  0
   -9.9015  -24.4765   37.1532 H   0  0  0  0  0  0  0  0  0  0  0  0
  -11.4888  -22.4981   35.3893 H   0  0  0  0  0  0  0  0  0  0  0  0
   -9.9656  -22.3412   34.7036 H   0  0  0  0  0  0  0  0  0  0  0  0
  -10.1878  -22.9867   32.4201 H   0  0  0  0  0  0  0  0  0  0  0  0
  -15.5883  -28.4738   29.1271 H   0  0  0  0  0  0  0  0  0  0  0  0
  -15.0568  -27.6264   30.5311 H   0  0  0  0  0  0  0  0  0  0  0  0
  1  2  1  0
  2  3  2  0
  2  4  1  0
  4  5  1  0
  5  6  1  0
  6  7  1  0
  7  8  1  0
  8  9  1  0
  8 10  2  3
 10 11  1  0
 11 12  2  0
 11 13  1  0
 13 14  1  0
 14 15  1  0
 15 16  1  0
 16 17  2  0
 17 18  1  0
 18 19  1  0
 19 20  1  0
 20 21  1  0
 21 22  1  0
 22 23  1  0
 23 24  1  0
 19 25  2  0
  7 26  1  0
 26  4  1  0
 25 16  1  0
  1 27  1  0
  1 28  1  0
  1 29  1  0
  5 30  1  0
  5 31  1  0
  6 32  1  0
  6 33  1  0
  7 34  1  0
  9 35  1  0
 13 36  1  0
 14 37  1  0
 14 38  1  0
 15 39  1  0
 15 40  1  0
 17 41  1  0
 18 42  1  0
 20 43  1  0
 20 44  1  0
 21 45  1  0
 21 46  1  0
 22 47  1  0
 22 48  1  0
 23 49  1  0
 23 50  1  0
 25 51  1  0
 26 52  1  0
 26 53  1  0
M  END
>  <Energy>  (624) 
654.00062653012958

>  <compound_id>  (624) 
3612

>  <target_id>  (624) 
1

>  <reference_id>  (624) 
161

>  <inspiration_ids>  (624) 
[123, 161]

>  <energy_score>  (624) 
686.9141919158587

>  <distance_score>  (624) 
7.143729767001937

>  <path>  (624) 
/opt/xchem-fragalysis-2/maxwin/BulkDock/SCRATCH/505734/C3612-P161/C3612-P161.minimised.mol

>  <scratch_subdir>  (624) 
/opt/xchem-fragalysis-2/maxwin/BulkDock/SCRATCH/505734/C3612-P161

>  <fragmenstein_runtime>  (624) 
13.100887775421143

>  <fragmenstein_outcome>  (624) 
too moved

>  <fragmenstein_mode>  (624) 
expansion

>  <fragmenstein_error>  (624) 


$$$$
C3615-P124
     RDKit          3D

 23 23  0  0  0  0  0  0  0  0999 V2000
   15.8774   -1.0156   15.9231 C   0  0  0  0  0  0  0  0  0  0  0  0
   15.7353    0.3358   16.6427 C   0  0  0  0  0  0  0  0  0  0  0  0
   17.0629    0.7134   17.2600 C   0  0  0  0  0  0  0  0  0  0  0  0
   18.1722    0.5206   16.7930 O   0  0  0  0  0  0  0  0  0  0  0  0
   16.9189    1.3422   18.4432 O   0  0  0  0  0  0  0  0  0  0  0  0
   15.2606    1.4759   15.7216 C   0  0  0  0  0  0  0  0  0  0  0  0
   14.7297    2.7105   16.4550 C   0  0  0  0  0  0  0  0  0  0  0  0
   13.5309    3.1857   15.6527 C   0  0  0  0  0  0  0  0  0  0  0  0
   13.4366    2.3116   14.4891 N   0  0  0  0  0  0  0  0  0  0  0  0
   14.1174    1.0681   14.8165 C   0  0  0  0  0  0  0  0  0  0  0  0
   14.9044   -1.4178   15.6255 H   0  0  0  0  0  0  0  0  0  0  0  0
   16.5017   -0.9227   15.0275 H   0  0  0  0  0  0  0  0  0  0  0  0
   16.3509   -1.7548   16.5792 H   0  0  0  0  0  0  0  0  0  0  0  0
   15.0193    0.1807   17.4594 H   0  0  0  0  0  0  0  0  0  0  0  0
   17.8402    1.5311   18.7212 H   0  0  0  0  0  0  0  0  0  0  0  0
   16.1001    1.8013   15.0892 H   0  0  0  0  0  0  0  0  0  0  0  0
   15.5052    3.4841   16.4984 H   0  0  0  0  0  0  0  0  0  0  0  0
   14.4414    2.4893   17.4873 H   0  0  0  0  0  0  0  0  0  0  0  0
   12.6242    3.1495   16.2638 H   0  0  0  0  0  0  0  0  0  0  0  0
   13.6579    4.2244   15.3309 H   0  0  0  0  0  0  0  0  0  0  0  0
   12.4450    2.0998   14.3254 H   0  0  0  0  0  0  0  0  0  0  0  0
   14.4768    0.5815   13.9038 H   0  0  0  0  0  0  0  0  0  0  0  0
   13.4414    0.3696   15.3109 H   0  0  0  0  0  0  0  0  0  0  0  0
  1  2  1  0
  2  3  1  0
  3  4  2  0
  3  5  1  0
  2  6  1  0
  6  7  1  0
  7  8  1  0
  8  9  1  0
  9 10  1  0
 10  6  1  0
  1 11  1  0
  1 12  1  0
  1 13  1  0
  2 14  1  0
  5 15  1  0
  6 16  1  0
  7 17  1  0
  7 18  1  0
  8 19  1  0
  8 20  1  0
  9 21  1  0
 10 22  1  0
 10 23  1  0
M  END
>  <Energy>  (625) 
-17.642247444767669

>  <compound_id>  (625) 
3615

>  <target_id>  (625) 
1

>  <reference_id>  (625) 
124

>  <inspiration_ids>  (625) 
[124, 5]

>  <energy_score>  (625) 
-25.317935904624765

>  <distance_score>  (625) 
3.0603728647919484

>  <path>  (625) 
/opt/xchem-fragalysis-2/maxwin/BulkDock/SCRATCH/505734/C3615-P124/C3615-P124.minimised.mol

>  <scratch_subdir>  (625) 
/opt/xchem-fragalysis-2/maxwin/BulkDock/SCRATCH/505734/C3615-P124

>  <fragmenstein_runtime>  (625) 
4.94153904914856

>  <fragmenstein_outcome>  (625) 
too moved

>  <fragmenstein_mode>  (625) 
expansion

>  <fragmenstein_error>  (625) 


$$$$
C3615-P5
     RDKit          3D

 23 23  0  0  0  0  0  0  0  0999 V2000
   15.1784   -0.7441   15.0604 C   0  0  0  0  0  0  0  0  0  0  0  0
   15.6419    0.6121   15.6081 C   0  0  0  0  0  0  0  0  0  0  0  0
   16.6542    1.2356   14.6680 C   0  0  0  0  0  0  0  0  0  0  0  0
   16.5012    2.2100   13.9518 O   0  0  0  0  0  0  0  0  0  0  0  0
   17.8368    0.5884   14.6864 O   0  0  0  0  0  0  0  0  0  0  0  0
   14.5194    1.6209   15.9723 C   0  0  0  0  0  0  0  0  0  0  0  0
   13.6257    2.0795   14.8075 C   0  0  0  0  0  0  0  0  0  0  0  0
   12.2020    1.7903   15.2468 C   0  0  0  0  0  0  0  0  0  0  0  0
   12.3506    0.6761   16.1802 N   0  0  0  0  0  0  0  0  0  0  0  0
   13.5285    1.0430   16.9760 C   0  0  0  0  0  0  0  0  0  0  0  0
   14.5968   -0.6294   14.1404 H   0  0  0  0  0  0  0  0  0  0  0  0
   16.0366   -1.3810   14.8185 H   0  0  0  0  0  0  0  0  0  0  0  0
   14.5712   -1.2871   15.7902 H   0  0  0  0  0  0  0  0  0  0  0  0
   16.1873    0.4178   16.5432 H   0  0  0  0  0  0  0  0  0  0  0  0
   18.3917    1.0862   14.0500 H   0  0  0  0  0  0  0  0  0  0  0  0
   14.9963    2.5069   16.4134 H   0  0  0  0  0  0  0  0  0  0  0  0
   13.8520    1.5347   13.8848 H   0  0  0  0  0  0  0  0  0  0  0  0
   13.7608    3.1464   14.5991 H   0  0  0  0  0  0  0  0  0  0  0  0
   11.7640    2.6549   15.7590 H   0  0  0  0  0  0  0  0  0  0  0  0
   11.5532    1.5314   14.4047 H   0  0  0  0  0  0  0  0  0  0  0  0
   12.5520   -0.1702   15.6467 H   0  0  0  0  0  0  0  0  0  0  0  0
   13.9142    0.1894   17.5417 H   0  0  0  0  0  0  0  0  0  0  0  0
   13.2450    1.8110   17.7065 H   0  0  0  0  0  0  0  0  0  0  0  0
  1  2  1  0
  2  3  1  0
  3  4  2  0
  3  5  1  0
  2  6  1  0
  6  7  1  0
  7  8  1  0
  8  9  1  0
  9 10  1  0
 10  6  1  0
  1 11  1  0
  1 12  1  0
  1 13  1  0
  2 14  1  0
  5 15  1  0
  6 16  1  0
  7 17  1  0
  7 18  1  0
  8 19  1  0
  8 20  1  0
  9 21  1  0
 10 22  1  0
 10 23  1  0
M  END
>  <Energy>  (626) 
-15.615939461053671

>  <compound_id>  (626) 
3615

>  <target_id>  (626) 
1

>  <reference_id>  (626) 
5

>  <inspiration_ids>  (626) 
[124, 5]

>  <energy_score>  (626) 
-23.291627920910855

>  <distance_score>  (626) 
2.412006837924775

>  <path>  (626) 
/opt/xchem-fragalysis-2/maxwin/BulkDock/SCRATCH/505734/C3615-P5/C3615-P5.minimised.mol

>  <scratch_subdir>  (626) 
/opt/xchem-fragalysis-2/maxwin/BulkDock/SCRATCH/505734/C3615-P5

>  <fragmenstein_runtime>  (626) 
4.8857831954956055

>  <fragmenstein_outcome>  (626) 
too moved

>  <fragmenstein_mode>  (626) 
expansion

>  <fragmenstein_error>  (626) 


$$$$
C3616-P124
     RDKit          3D

 45 46  0  0  0  0  0  0  0  0999 V2000
   17.7156   -1.0042   19.9004 C   0  0  0  0  0  0  0  0  0  0  0  0
   18.2344   -1.8941   18.7909 C   0  0  0  0  0  0  0  0  0  0  0  0
   18.9865   -2.7771   18.9828 O   0  0  0  0  0  0  0  0  0  0  0  0
   17.6016   -1.4076   17.5024 N   0  0  0  0  0  0  0  0  0  0  0  0
   17.8223   -1.8392   16.0807 C   0  0  0  0  0  0  0  0  0  0  0  0
   16.7031   -1.4519   15.1211 C   0  0  0  0  0  0  0  0  0  0  0  0
   16.5334   -2.4593   14.0180 C   0  0  0  0  0  0  0  0  0  0  0  0
   16.1419   -2.2075   12.8885 O   0  0  0  0  0  0  0  0  0  0  0  0
   16.7665   -3.7232   14.4016 O   0  0  0  0  0  0  0  0  0  0  0  0
   15.5609   -1.4037   16.0916 C   0  0  0  0  0  0  0  0  0  0  0  0
   14.1809   -1.8580   15.6556 C   0  0  0  0  0  0  0  0  0  0  0  0
   13.6253   -3.0066   16.2663 C   0  0  0  0  0  0  0  0  0  0  0  0
   12.3339   -3.4443   15.9782 C   0  0  0  0  0  0  0  0  0  0  0  0
   11.5753   -2.7735   15.0361 C   0  0  0  0  0  0  0  0  0  0  0  0
   12.0952   -1.6437   14.4110 C   0  0  0  0  0  0  0  0  0  0  0  0
   13.3755   -1.1335   14.7249 C   0  0  0  0  0  0  0  0  0  0  0  0
   13.7157    0.2229   14.0737 C   0  0  0  0  0  0  0  0  0  0  0  0
   14.7188    0.0472   13.0719 O   0  0  0  0  0  0  0  0  0  0  0  0
   14.2266    1.2537   15.0532 C   0  0  0  0  0  0  0  0  0  0  0  0
   13.9753    2.9385   14.6077 S   0  0  0  0  0  0  0  0  0  0  0  0
   15.1589    3.1979   13.3185 C   0  0  0  0  0  0  0  0  0  0  0  0
   12.6620    3.1441   14.0350 O   0  0  0  0  0  0  0  0  0  0  0  0
   14.4092    3.7179   15.7569 O   0  0  0  0  0  0  0  0  0  0  0  0
   16.2876   -2.1079   17.2385 C   0  0  0  0  0  0  0  0  0  0  0  0
   17.2251   -0.1078   19.5106 H   0  0  0  0  0  0  0  0  0  0  0  0
   17.0004   -1.5683   20.5049 H   0  0  0  0  0  0  0  0  0  0  0  0
   18.5566   -0.6878   20.5239 H   0  0  0  0  0  0  0  0  0  0  0  0
   18.1643   -2.8868   16.0610 H   0  0  0  0  0  0  0  0  0  0  0  0
   18.7274   -1.2933   15.7769 H   0  0  0  0  0  0  0  0  0  0  0  0
   16.9066   -0.4739   14.6724 H   0  0  0  0  0  0  0  0  0  0  0  0
   16.5115   -4.2718   13.6177 H   0  0  0  0  0  0  0  0  0  0  0  0
   15.4403   -0.3867   16.4757 H   0  0  0  0  0  0  0  0  0  0  0  0
   14.1809   -3.5897   16.9965 H   0  0  0  0  0  0  0  0  0  0  0  0
   11.9352   -4.3294   16.4698 H   0  0  0  0  0  0  0  0  0  0  0  0
   10.5769   -3.1174   14.7832 H   0  0  0  0  0  0  0  0  0  0  0  0
   11.4557   -1.1163   13.7017 H   0  0  0  0  0  0  0  0  0  0  0  0
   12.8313    0.6025   13.5521 H   0  0  0  0  0  0  0  0  0  0  0  0
   14.7390   -0.8950   12.8017 H   0  0  0  0  0  0  0  0  0  0  0  0
   15.3114    1.1862   15.1818 H   0  0  0  0  0  0  0  0  0  0  0  0
   13.7766    1.1502   16.0297 H   0  0  0  0  0  0  0  0  0  0  0  0
   15.1570    4.2611   13.0674 H   0  0  0  0  0  0  0  0  0  0  0  0
   16.1490    2.9066   13.6736 H   0  0  0  0  0  0  0  0  0  0  0  0
   14.8715    2.6168   12.4413 H   0  0  0  0  0  0  0  0  0  0  0  0
   16.3991   -3.2045   17.1597 H   0  0  0  0  0  0  0  0  0  0  0  0
   15.6942   -1.9755   18.1557 H   0  0  0  0  0  0  0  0  0  0  0  0
  1  2  1  0
  2  3  2  0
  2  4  1  0
  4  5  1  0
  5  6  1  0
  6  7  1  0
  7  8  2  0
  7  9  1  0
  6 10  1  0
 10 11  1  0
 11 12  2  0
 12 13  1  0
 13 14  2  0
 14 15  1  0
 15 16  2  0
 16 17  1  0
 17 18  1  0
 17 19  1  0
 19 20  1  0
 20 21  1  0
 20 22  2  0
 20 23  2  0
 10 24  1  0
 24  4  1  0
 16 11  1  0
  1 25  1  0
  1 26  1  0
  1 27  1  0
  5 28  1  0
  5 29  1  0
  6 30  1  0
  9 31  1  0
 10 32  1  0
 12 33  1  0
 13 34  1  0
 14 35  1  0
 15 36  1  0
 17 37  1  0
 18 38  1  0
 19 39  1  0
 19 40  1  0
 21 41  1  0
 21 42  1  0
 21 43  1  0
 24 44  1  0
 24 45  1  0
M  END
>  <Energy>  (627) 
58.361916676316312

>  <compound_id>  (627) 
3616

>  <target_id>  (627) 
1

>  <reference_id>  (627) 
124

>  <inspiration_ids>  (627) 
[124, 6]

>  <energy_score>  (627) 
9.878289972085923

>  <distance_score>  (627) 
2.0788737889156392

>  <path>  (627) 
/opt/xchem-fragalysis-2/maxwin/BulkDock/SCRATCH/505734/C3616-P124/C3616-P124.minimised.mol

>  <scratch_subdir>  (627) 
/opt/xchem-fragalysis-2/maxwin/BulkDock/SCRATCH/505734/C3616-P124

>  <fragmenstein_runtime>  (627) 
27.351426124572754

>  <fragmenstein_outcome>  (627) 
too moved

>  <fragmenstein_mode>  (627) 
expansion

>  <fragmenstein_error>  (627) 


$$$$
C3616-P6
     RDKit          3D

 45 46  0  0  0  0  0  0  0  0999 V2000
   17.2759   -0.8030   20.5501 C   0  0  0  0  0  0  0  0  0  0  0  0
   17.4378   -2.0676   19.7339 C   0  0  0  0  0  0  0  0  0  0  0  0
   17.7693   -3.0918   20.2064 O   0  0  0  0  0  0  0  0  0  0  0  0
   17.0919   -1.7151   18.3009 N   0  0  0  0  0  0  0  0  0  0  0  0
   17.1665   -2.5376   17.0463 C   0  0  0  0  0  0  0  0  0  0  0  0
   16.4618   -1.8541   15.8972 C   0  0  0  0  0  0  0  0  0  0  0  0
   16.2653   -2.6838   14.6674 C   0  0  0  0  0  0  0  0  0  0  0  0
   15.7929   -2.2597   13.6215 O   0  0  0  0  0  0  0  0  0  0  0  0
   16.6438   -3.9627   14.7899 O   0  0  0  0  0  0  0  0  0  0  0  0
   15.2180   -1.4301   16.6243 C   0  0  0  0  0  0  0  0  0  0  0  0
   13.8535   -1.8715   16.1119 C   0  0  0  0  0  0  0  0  0  0  0  0
   13.3194   -3.1056   16.5300 C   0  0  0  0  0  0  0  0  0  0  0  0
   12.0777   -3.5567   16.0905 C   0  0  0  0  0  0  0  0  0  0  0  0
   11.3417   -2.8000   15.1967 C   0  0  0  0  0  0  0  0  0  0  0  0
   11.8396   -1.5818   14.7559 C   0  0  0  0  0  0  0  0  0  0  0  0
   13.0884   -1.0969   15.1936 C   0  0  0  0  0  0  0  0  0  0  0  0
   13.5057    0.2593   14.6358 C   0  0  0  0  0  0  0  0  0  0  0  0
   14.8440    0.1744   14.1553 O   0  0  0  0  0  0  0  0  0  0  0  0
   13.3998    1.3432   15.6870 C   0  0  0  0  0  0  0  0  0  0  0  0
   13.5119    2.9742   15.0149 S   0  0  0  0  0  0  0  0  0  0  0  0
   14.9048    3.0011   13.9122 C   0  0  0  0  0  0  0  0  0  0  0  0
   12.3135    3.2084   14.2276 O   0  0  0  0  0  0  0  0  0  0  0  0
   13.8408    3.8460   16.1287 O   0  0  0  0  0  0  0  0  0  0  0  0
   15.6192   -1.9066   18.0305 C   0  0  0  0  0  0  0  0  0  0  0  0
   17.2207    0.0874   19.9174 H   0  0  0  0  0  0  0  0  0  0  0  0
   16.3615   -0.8768   21.1447 H   0  0  0  0  0  0  0  0  0  0  0  0
   18.1390   -0.6955   21.2132 H   0  0  0  0  0  0  0  0  0  0  0  0
   16.9080   -3.5953   17.2311 H   0  0  0  0  0  0  0  0  0  0  0  0
   18.2409   -2.5870   16.8177 H   0  0  0  0  0  0  0  0  0  0  0  0
   17.0519   -0.9768   15.5991 H   0  0  0  0  0  0  0  0  0  0  0  0
   16.3938   -4.3680   13.9210 H   0  0  0  0  0  0  0  0  0  0  0  0
   15.2352   -0.3423   16.6885 H   0  0  0  0  0  0  0  0  0  0  0  0
   13.8588   -3.7714   17.1954 H   0  0  0  0  0  0  0  0  0  0  0  0
   11.7059   -4.5214   16.4281 H   0  0  0  0  0  0  0  0  0  0  0  0
   10.3892   -3.1590   14.8193 H   0  0  0  0  0  0  0  0  0  0  0  0
   11.2397   -1.0109   14.0468 H   0  0  0  0  0  0  0  0  0  0  0  0
   12.8865    0.5104   13.7667 H   0  0  0  0  0  0  0  0  0  0  0  0
   14.9311   -0.6787   13.6703 H   0  0  0  0  0  0  0  0  0  0  0  0
   14.1932    1.2978   16.4347 H   0  0  0  0  0  0  0  0  0  0  0  0
   12.4385    1.2995   16.2117 H   0  0  0  0  0  0  0  0  0  0  0  0
   15.0715    4.0398   13.6158 H   0  0  0  0  0  0  0  0  0  0  0  0
   15.7852    2.6295   14.4390 H   0  0  0  0  0  0  0  0  0  0  0  0
   14.6813    2.4099   13.0236 H   0  0  0  0  0  0  0  0  0  0  0  0
   15.3100   -2.9200   18.3314 H   0  0  0  0  0  0  0  0  0  0  0  0
   15.0947   -1.2704   18.7598 H   0  0  0  0  0  0  0  0  0  0  0  0
  1  2  1  0
  2  3  2  0
  2  4  1  0
  4  5  1  0
  5  6  1  0
  6  7  1  0
  7  8  2  0
  7  9  1  0
  6 10  1  0
 10 11  1  0
 11 12  2  0
 12 13  1  0
 13 14  2  0
 14 15  1  0
 15 16  2  0
 16 17  1  0
 17 18  1  0
 17 19  1  0
 19 20  1  0
 20 21  1  0
 20 22  2  0
 20 23  2  0
 10 24  1  0
 24  4  1  0
 16 11  1  0
  1 25  1  0
  1 26  1  0
  1 27  1  0
  5 28  1  0
  5 29  1  0
  6 30  1  0
  9 31  1  0
 10 32  1  0
 12 33  1  0
 13 34  1  0
 14 35  1  0
 15 36  1  0
 17 37  1  0
 18 38  1  0
 19 39  1  0
 19 40  1  0
 21 41  1  0
 21 42  1  0
 21 43  1  0
 24 44  1  0
 24 45  1  0
M  END
>  <Energy>  (628) 
52.53307568093404

>  <compound_id>  (628) 
3616

>  <target_id>  (628) 
1

>  <reference_id>  (628) 
6

>  <inspiration_ids>  (628) 
[124, 6]

>  <energy_score>  (628) 
4.049448976702763

>  <distance_score>  (628) 
1.816193216882628

>  <path>  (628) 
/opt/xchem-fragalysis-2/maxwin/BulkDock/SCRATCH/505734/C3616-P6/C3616-P6.minimised.mol

>  <scratch_subdir>  (628) 
/opt/xchem-fragalysis-2/maxwin/BulkDock/SCRATCH/505734/C3616-P6

>  <fragmenstein_runtime>  (628) 
26.749603271484375

>  <fragmenstein_outcome>  (628) 
too moved

>  <fragmenstein_mode>  (628) 
expansion

>  <fragmenstein_error>  (628) 


$$$$
C3617-P124
     RDKit          3D

 53 55  0  0  0  0  0  0  0  0999 V2000
   14.5514   -4.2552   20.8566 C   0  0  0  0  0  0  0  0  0  0  0  0
   15.7348   -4.3431   19.9156 C   0  0  0  0  0  0  0  0  0  0  0  0
   16.6554   -5.0744   20.1630 O   0  0  0  0  0  0  0  0  0  0  0  0
   15.5108   -3.4788   18.8044 N   0  0  0  0  0  0  0  0  0  0  0  0
   16.0625   -2.1043   19.0907 C   0  0  0  0  0  0  0  0  0  0  0  0
   15.8878   -1.1054   17.9404 C   0  0  0  0  0  0  0  0  0  0  0  0
   17.1146   -0.2090   17.8928 C   0  0  0  0  0  0  0  0  0  0  0  0
   18.1932   -0.4871   18.3965 O   0  0  0  0  0  0  0  0  0  0  0  0
   16.9420    0.9491   17.2298 O   0  0  0  0  0  0  0  0  0  0  0  0
   15.8139   -2.0520   16.7713 C   0  0  0  0  0  0  0  0  0  0  0  0
   14.4303   -2.1764   16.1105 C   0  0  0  0  0  0  0  0  0  0  0  0
   13.5193   -3.1841   16.4874 C   0  0  0  0  0  0  0  0  0  0  0  0
   12.2715   -3.3266   15.8743 C   0  0  0  0  0  0  0  0  0  0  0  0
   11.8997   -2.4862   14.8376 C   0  0  0  0  0  0  0  0  0  0  0  0
   12.7666   -1.4776   14.4342 C   0  0  0  0  0  0  0  0  0  0  0  0
   14.0109   -1.3069   15.0710 C   0  0  0  0  0  0  0  0  0  0  0  0
   14.7750   -0.0797   14.7203 C   0  0  0  0  0  0  0  0  0  0  0  0
   15.1220    0.6026   15.6477 O   0  0  0  0  0  0  0  0  0  0  0  0
   14.8938    0.1321   13.3242 N   0  0  0  0  0  0  0  0  0  0  0  0
   16.2031   -0.4692   12.8113 C   0  0  0  0  0  0  0  0  0  0  0  0
   16.2204   -0.8946   11.3313 C   0  0  0  0  0  0  0  0  0  0  0  0
   16.2426    0.3450   10.4551 C   0  0  0  0  0  0  0  0  0  0  0  0
   16.0133    0.0390    8.9808 C   0  0  0  0  0  0  0  0  0  0  0  0
   16.0372    1.2498    8.2399 O   0  0  0  0  0  0  0  0  0  0  0  0
   15.2024    1.2877   11.0337 C   0  0  0  0  0  0  0  0  0  0  0  0
   15.3885    1.3253   12.5499 C   0  0  0  0  0  0  0  0  0  0  0  0
   16.2940   -3.2865   17.5381 C   0  0  0  0  0  0  0  0  0  0  0  0
   13.6784   -3.8148   20.3665 H   0  0  0  0  0  0  0  0  0  0  0  0
   14.8245   -3.6471   21.7229 H   0  0  0  0  0  0  0  0  0  0  0  0
   14.2804   -5.2632   21.1838 H   0  0  0  0  0  0  0  0  0  0  0  0
   17.0799   -2.1946   19.5071 H   0  0  0  0  0  0  0  0  0  0  0  0
   15.4802   -1.7261   19.9447 H   0  0  0  0  0  0  0  0  0  0  0  0
   14.9892   -0.4996   18.0950 H   0  0  0  0  0  0  0  0  0  0  0  0
   16.0913    0.9994   16.7234 H   0  0  0  0  0  0  0  0  0  0  0  0
   16.5443   -1.8325   15.9829 H   0  0  0  0  0  0  0  0  0  0  0  0
   13.7428   -3.9009   17.2716 H   0  0  0  0  0  0  0  0  0  0  0  0
   11.6057   -4.1245   16.1969 H   0  0  0  0  0  0  0  0  0  0  0  0
   10.9360   -2.6076   14.3523 H   0  0  0  0  0  0  0  0  0  0  0  0
   12.4469   -0.7873   13.6559 H   0  0  0  0  0  0  0  0  0  0  0  0
   16.2748   -1.4282   13.3504 H   0  0  0  0  0  0  0  0  0  0  0  0
   17.1221    0.0328   13.1612 H   0  0  0  0  0  0  0  0  0  0  0  0
   15.3347   -1.5067   11.1174 H   0  0  0  0  0  0  0  0  0  0  0  0
   17.1019   -1.5142   11.1302 H   0  0  0  0  0  0  0  0  0  0  0  0
   17.2227    0.8327   10.5540 H   0  0  0  0  0  0  0  0  0  0  0  0
   15.0513   -0.4529    8.8191 H   0  0  0  0  0  0  0  0  0  0  0  0
   16.8049   -0.6119    8.5970 H   0  0  0  0  0  0  0  0  0  0  0  0
   15.7176    1.0517    7.3414 H   0  0  0  0  0  0  0  0  0  0  0  0
   14.1868    0.9517   10.7917 H   0  0  0  0  0  0  0  0  0  0  0  0
   15.3239    2.2946   10.6185 H   0  0  0  0  0  0  0  0  0  0  0  0
   16.3378    1.7675   12.8985 H   0  0  0  0  0  0  0  0  0  0  0  0
   14.6798    2.0982   12.8894 H   0  0  0  0  0  0  0  0  0  0  0  0
   17.3833   -3.3181   17.7204 H   0  0  0  0  0  0  0  0  0  0  0  0
   16.1155   -4.1935   16.9448 H   0  0  0  0  0  0  0  0  0  0  0  0
  1  2  1  0
  2  3  2  0
  2  4  1  0
  4  5  1  0
  5  6  1  0
  6  7  1  0
  7  8  2  0
  7  9  1  0
  6 10  1  0
 10 11  1  0
 11 12  2  0
 12 13  1  0
 13 14  2  0
 14 15  1  0
 15 16  2  0
 16 17  1  0
 17 18  2  0
 17 19  1  0
 19 20  1  0
 20 21  1  0
 21 22  1  0
 22 23  1  0
 23 24  1  0
 22 25  1  0
 25 26  1  0
 10 27  1  0
 27  4  1  0
 16 11  1  0
 26 19  1  0
  1 28  1  0
  1 29  1  0
  1 30  1  0
  5 31  1  0
  5 32  1  0
  6 33  1  0
  9 34  1  0
 10 35  1  0
 12 36  1  0
 13 37  1  0
 14 38  1  0
 15 39  1  0
 20 40  1  0
 20 41  1  0
 21 42  1  0
 21 43  1  0
 22 44  1  0
 23 45  1  0
 23 46  1  0
 24 47  1  0
 25 48  1  0
 25 49  1  0
 26 50  1  0
 26 51  1  0
 27 52  1  0
 27 53  1  0
M  END
>  <Energy>  (629) 
116.1636271219058

>  <compound_id>  (629) 
3617

>  <target_id>  (629) 
1

>  <reference_id>  (629) 
124

>  <inspiration_ids>  (629) 
[124, 10]

>  <energy_score>  (629) 
66.22804532035644

>  <distance_score>  (629) 
2.8366885825120627

>  <path>  (629) 
/opt/xchem-fragalysis-2/maxwin/BulkDock/SCRATCH/505734/C3617-P124/C3617-P124.minimised.mol

>  <scratch_subdir>  (629) 
/opt/xchem-fragalysis-2/maxwin/BulkDock/SCRATCH/505734/C3617-P124

>  <fragmenstein_runtime>  (629) 
26.36166024208069

>  <fragmenstein_outcome>  (629) 
too moved

>  <fragmenstein_mode>  (629) 
expansion

>  <fragmenstein_error>  (629) 


$$$$
C3617-P10
     RDKit          3D

 53 55  0  0  0  0  0  0  0  0999 V2000
   19.5475   -1.4069   16.8372 C   0  0  0  0  0  0  0  0  0  0  0  0
   18.6346   -0.1988   16.8070 C   0  0  0  0  0  0  0  0  0  0  0  0
   19.0920    0.8999   16.6368 O   0  0  0  0  0  0  0  0  0  0  0  0
   17.2870   -0.6231   16.9864 N   0  0  0  0  0  0  0  0  0  0  0  0
   16.9330   -0.6374   18.4529 C   0  0  0  0  0  0  0  0  0  0  0  0
   15.5901   -1.3068   18.6328 C   0  0  0  0  0  0  0  0  0  0  0  0
   15.0389   -1.1130   20.0172 C   0  0  0  0  0  0  0  0  0  0  0  0
   15.1153   -0.0995   20.6892 O   0  0  0  0  0  0  0  0  0  0  0  0
   14.3477   -2.1916   20.4318 O   0  0  0  0  0  0  0  0  0  0  0  0
   14.8106   -0.5370   17.5966 C   0  0  0  0  0  0  0  0  0  0  0  0
   13.8243   -1.2689   16.6898 C   0  0  0  0  0  0  0  0  0  0  0  0
   13.5245   -2.6282   16.9070 C   0  0  0  0  0  0  0  0  0  0  0  0
   12.5455   -3.2934   16.1658 C   0  0  0  0  0  0  0  0  0  0  0  0
   11.8491   -2.6311   15.1663 C   0  0  0  0  0  0  0  0  0  0  0  0
   12.1205   -1.2911   14.9174 C   0  0  0  0  0  0  0  0  0  0  0  0
   13.0875   -0.5974   15.6724 C   0  0  0  0  0  0  0  0  0  0  0  0
   13.2063    0.8864   15.4257 C   0  0  0  0  0  0  0  0  0  0  0  0
   13.3446    1.5916   16.3876 O   0  0  0  0  0  0  0  0  0  0  0  0
   13.0530    1.2177   14.0494 N   0  0  0  0  0  0  0  0  0  0  0  0
   14.4193    1.2704   13.3672 C   0  0  0  0  0  0  0  0  0  0  0  0
   14.4353    0.9826   11.8554 C   0  0  0  0  0  0  0  0  0  0  0  0
   13.7845    2.1189   11.0846 C   0  0  0  0  0  0  0  0  0  0  0  0
   14.7506    3.2933   10.8857 C   0  0  0  0  0  0  0  0  0  0  0  0
   14.1140    4.3191   10.1356 O   0  0  0  0  0  0  0  0  0  0  0  0
   12.5494    2.5119   11.8826 C   0  0  0  0  0  0  0  0  0  0  0  0
   12.9026    2.5522   13.3725 C   0  0  0  0  0  0  0  0  0  0  0  0
   15.9993    0.1443   16.9110 C   0  0  0  0  0  0  0  0  0  0  0  0
   20.1713   -1.3606   17.7339 H   0  0  0  0  0  0  0  0  0  0  0  0
   20.1809   -1.3960   15.9456 H   0  0  0  0  0  0  0  0  0  0  0  0
   18.9848   -2.3452   16.8449 H   0  0  0  0  0  0  0  0  0  0  0  0
   17.0559    0.3513   18.9308 H   0  0  0  0  0  0  0  0  0  0  0  0
   17.6943   -1.2546   18.9531 H   0  0  0  0  0  0  0  0  0  0  0  0
   15.7218   -2.3719   18.4211 H   0  0  0  0  0  0  0  0  0  0  0  0
   13.8339   -1.9334   21.2393 H   0  0  0  0  0  0  0  0  0  0  0  0
   14.2192    0.2336   18.1043 H   0  0  0  0  0  0  0  0  0  0  0  0
   14.0017   -3.2057   17.6946 H   0  0  0  0  0  0  0  0  0  0  0  0
   12.3181   -4.3337   16.3895 H   0  0  0  0  0  0  0  0  0  0  0  0
   11.0855   -3.1488   14.5909 H   0  0  0  0  0  0  0  0  0  0  0  0
   11.5381   -0.7815   14.1521 H   0  0  0  0  0  0  0  0  0  0  0  0
   14.9470    0.3978   13.7826 H   0  0  0  0  0  0  0  0  0  0  0  0
   15.0809    2.0892   13.6990 H   0  0  0  0  0  0  0  0  0  0  0  0
   13.8836    0.0525   11.6713 H   0  0  0  0  0  0  0  0  0  0  0  0
   15.4626    0.8143   11.5125 H   0  0  0  0  0  0  0  0  0  0  0  0
   13.4718    1.7784   10.0912 H   0  0  0  0  0  0  0  0  0  0  0  0
   15.6483    2.9775   10.3433 H   0  0  0  0  0  0  0  0  0  0  0  0
   15.0733    3.7267   11.8367 H   0  0  0  0  0  0  0  0  0  0  0  0
   14.0514    4.0102    9.2142 H   0  0  0  0  0  0  0  0  0  0  0  0
   11.7550    1.7716   11.7201 H   0  0  0  0  0  0  0  0  0  0  0  0
   12.1514    3.4796   11.5587 H   0  0  0  0  0  0  0  0  0  0  0  0
   13.6125    3.3382   13.6807 H   0  0  0  0  0  0  0  0  0  0  0  0
   11.9844    2.9250   13.8550 H   0  0  0  0  0  0  0  0  0  0  0  0
   16.1516    1.1850   17.2469 H   0  0  0  0  0  0  0  0  0  0  0  0
   15.8308    0.2487   15.8351 H   0  0  0  0  0  0  0  0  0  0  0  0
  1  2  1  0
  2  3  2  0
  2  4  1  0
  4  5  1  0
  5  6  1  0
  6  7  1  0
  7  8  2  0
  7  9  1  0
  6 10  1  0
 10 11  1  0
 11 12  2  0
 12 13  1  0
 13 14  2  0
 14 15  1  0
 15 16  2  0
 16 17  1  0
 17 18  2  0
 17 19  1  0
 19 20  1  0
 20 21  1  0
 21 22  1  0
 22 23  1  0
 23 24  1  0
 22 25  1  0
 25 26  1  0
 10 27  1  0
 27  4  1  0
 16 11  1  0
 26 19  1  0
  1 28  1  0
  1 29  1  0
  1 30  1  0
  5 31  1  0
  5 32  1  0
  6 33  1  0
  9 34  1  0
 10 35  1  0
 12 36  1  0
 13 37  1  0
 14 38  1  0
 15 39  1  0
 20 40  1  0
 20 41  1  0
 21 42  1  0
 21 43  1  0
 22 44  1  0
 23 45  1  0
 23 46  1  0
 24 47  1  0
 25 48  1  0
 25 49  1  0
 26 50  1  0
 26 51  1  0
 27 52  1  0
 27 53  1  0
M  END
>  <Energy>  (630) 
124.78751928884571

>  <compound_id>  (630) 
3617

>  <target_id>  (630) 
1

>  <reference_id>  (630) 
10

>  <inspiration_ids>  (630) 
[124, 10]

>  <energy_score>  (630) 
74.85193748729223

>  <distance_score>  (630) 
2.6315533284704475

>  <path>  (630) 
/opt/xchem-fragalysis-2/maxwin/BulkDock/SCRATCH/505734/C3617-P10/C3617-P10.minimised.mol

>  <scratch_subdir>  (630) 
/opt/xchem-fragalysis-2/maxwin/BulkDock/SCRATCH/505734/C3617-P10

>  <fragmenstein_runtime>  (630) 
25.699082612991333

>  <fragmenstein_outcome>  (630) 
too moved

>  <fragmenstein_mode>  (630) 
expansion

>  <fragmenstein_error>  (630) 


$$$$
C3618-P124
     RDKit          3D

 32 33  0  0  0  0  0  0  0  0999 V2000
   19.6853   -1.9951   14.0425 C   0  0  0  0  0  0  0  0  0  0  0  0
   19.2070   -2.8350   15.2070 C   0  0  0  0  0  0  0  0  0  0  0  0
   19.6233   -3.9119   15.4287 O   0  0  0  0  0  0  0  0  0  0  0  0
   18.1572   -2.0205   15.9356 N   0  0  0  0  0  0  0  0  0  0  0  0
   17.4123   -2.3007   17.2090 C   0  0  0  0  0  0  0  0  0  0  0  0
   16.2179   -1.3909   17.4179 C   0  0  0  0  0  0  0  0  0  0  0  0
   16.5982   -0.0250   17.9354 C   0  0  0  0  0  0  0  0  0  0  0  0
   16.1878    1.0500   17.5307 O   0  0  0  0  0  0  0  0  0  0  0  0
   17.4058   -0.0722   19.0113 O   0  0  0  0  0  0  0  0  0  0  0  0
   15.7224   -1.3656   15.9955 C   0  0  0  0  0  0  0  0  0  0  0  0
   14.3210   -1.8876   15.7274 C   0  0  0  0  0  0  0  0  0  0  0  0
   13.8123   -2.9661   16.4840 C   0  0  0  0  0  0  0  0  0  0  0  0
   12.5273   -3.4681   16.2700 C   0  0  0  0  0  0  0  0  0  0  0  0
   11.7183   -2.9132   15.2880 C   0  0  0  0  0  0  0  0  0  0  0  0
   12.2031   -1.8716   14.5046 C   0  0  0  0  0  0  0  0  0  0  0  0
   13.4966   -1.3687   14.7062 C   0  0  0  0  0  0  0  0  0  0  0  0
   14.1041    0.1412   13.3677 I   0  0  0  0  0  0  0  0  0  0  0  0
   16.7793   -2.2783   15.3762 C   0  0  0  0  0  0  0  0  0  0  0  0
   20.7768   -2.0464   13.9927 H   0  0  0  0  0  0  0  0  0  0  0  0
   19.2556   -2.3892   13.1177 H   0  0  0  0  0  0  0  0  0  0  0  0
   19.3996   -0.9449   14.1523 H   0  0  0  0  0  0  0  0  0  0  0  0
   17.1797   -3.3760   17.3147 H   0  0  0  0  0  0  0  0  0  0  0  0
   18.1654   -2.1461   17.9926 H   0  0  0  0  0  0  0  0  0  0  0  0
   15.5214   -1.8042   18.1530 H   0  0  0  0  0  0  0  0  0  0  0  0
   17.5538    0.8686   19.2481 H   0  0  0  0  0  0  0  0  0  0  0  0
   15.8398   -0.3574   15.5926 H   0  0  0  0  0  0  0  0  0  0  0  0
   14.4146   -3.4560   17.2456 H   0  0  0  0  0  0  0  0  0  0  0  0
   12.1691   -4.3130   16.8538 H   0  0  0  0  0  0  0  0  0  0  0  0
   10.7261   -3.3126   15.0977 H   0  0  0  0  0  0  0  0  0  0  0  0
   11.5622   -1.4615   13.7271 H   0  0  0  0  0  0  0  0  0  0  0  0
   16.8464   -2.0425   14.3037 H   0  0  0  0  0  0  0  0  0  0  0  0
   16.5371   -3.3573   15.3701 H   0  0  0  0  0  0  0  0  0  0  0  0
  1  2  1  0
  2  3  2  0
  2  4  1  0
  4  5  1  0
  5  6  1  0
  6  7  1  0
  7  8  2  0
  7  9  1  0
  6 10  1  0
 10 11  1  0
 11 12  2  0
 12 13  1  0
 13 14  2  0
 14 15  1  0
 15 16  2  0
 16 17  1  0
 10 18  1  0
 18  4  1  0
 16 11  1  0
  1 19  1  0
  1 20  1  0
  1 21  1  0
  5 22  1  0
  5 23  1  0
  6 24  1  0
  9 25  1  0
 10 26  1  0
 12 27  1  0
 13 28  1  0
 14 29  1  0
 15 30  1  0
 18 31  1  0
 18 32  1  0
M  END
>  <Energy>  (631) 
58.131241772465849

>  <compound_id>  (631) 
3618

>  <target_id>  (631) 
1

>  <reference_id>  (631) 
124

>  <inspiration_ids>  (631) 
[124, 12]

>  <energy_score>  (631) 
45.6314594481553

>  <distance_score>  (631) 
2.121537194115769

>  <path>  (631) 
/opt/xchem-fragalysis-2/maxwin/BulkDock/SCRATCH/505734/C3618-P124/C3618-P124.minimised.mol

>  <scratch_subdir>  (631) 
/opt/xchem-fragalysis-2/maxwin/BulkDock/SCRATCH/505734/C3618-P124

>  <fragmenstein_runtime>  (631) 
60.62240433692932

>  <fragmenstein_outcome>  (631) 
too moved

>  <fragmenstein_mode>  (631) 
expansion

>  <fragmenstein_error>  (631) 


$$$$
C3618-P12
     RDKit          3D

 32 33  0  0  0  0  0  0  0  0999 V2000
   19.3259   -0.2988   14.7171 C   0  0  0  0  0  0  0  0  0  0  0  0
   18.9799   -1.2783   15.8181 C   0  0  0  0  0  0  0  0  0  0  0  0
   19.6010   -2.2562   16.0182 O   0  0  0  0  0  0  0  0  0  0  0  0
   17.7520   -0.7358   16.5211 N   0  0  0  0  0  0  0  0  0  0  0  0
   17.0251   -1.2284   17.7410 C   0  0  0  0  0  0  0  0  0  0  0  0
   15.6589   -0.5959   17.9186 C   0  0  0  0  0  0  0  0  0  0  0  0
   15.7482    0.7841   18.5221 C   0  0  0  0  0  0  0  0  0  0  0  0
   15.2706    1.8165   18.0837 O   0  0  0  0  0  0  0  0  0  0  0  0
   16.3618    0.7845   19.7223 O   0  0  0  0  0  0  0  0  0  0  0  0
   15.2387   -0.5912   16.4731 C   0  0  0  0  0  0  0  0  0  0  0  0
   13.9728   -1.3549   16.1230 C   0  0  0  0  0  0  0  0  0  0  0  0
   13.7348   -2.6182   16.7087 C   0  0  0  0  0  0  0  0  0  0  0  0
   12.6020   -3.3704   16.3942 C   0  0  0  0  0  0  0  0  0  0  0  0
   11.6813   -2.8844   15.4774 C   0  0  0  0  0  0  0  0  0  0  0  0
   11.8888   -1.6453   14.8830 C   0  0  0  0  0  0  0  0  0  0  0  0
   13.0252   -0.8863   15.1909 C   0  0  0  0  0  0  0  0  0  0  0  0
   13.1934    0.9333   14.1443 I   0  0  0  0  0  0  0  0  0  0  0  0
   16.4841   -1.2434   15.8777 C   0  0  0  0  0  0  0  0  0  0  0  0
   20.4014   -0.1017   14.7425 H   0  0  0  0  0  0  0  0  0  0  0  0
   19.0541   -0.7357   13.7526 H   0  0  0  0  0  0  0  0  0  0  0  0
   18.8030    0.6541   14.8381 H   0  0  0  0  0  0  0  0  0  0  0  0
   17.0199   -2.3320   17.7921 H   0  0  0  0  0  0  0  0  0  0  0  0
   17.6919   -0.9561   18.5700 H   0  0  0  0  0  0  0  0  0  0  0  0
   15.0205   -1.1842   18.5853 H   0  0  0  0  0  0  0  0  0  0  0  0
   16.3211    1.7200   20.0146 H   0  0  0  0  0  0  0  0  0  0  0  0
   15.1847    0.4374   16.1130 H   0  0  0  0  0  0  0  0  0  0  0  0
   14.4416   -3.0538   17.4119 H   0  0  0  0  0  0  0  0  0  0  0  0
   12.4495   -4.3476   16.8476 H   0  0  0  0  0  0  0  0  0  0  0  0
   10.8143   -3.4775   15.2002 H   0  0  0  0  0  0  0  0  0  0  0  0
   11.1596   -1.2868   14.1604 H   0  0  0  0  0  0  0  0  0  0  0  0
   16.5477   -0.9460   14.8200 H   0  0  0  0  0  0  0  0  0  0  0  0
   16.4710   -2.3472   15.8170 H   0  0  0  0  0  0  0  0  0  0  0  0
  1  2  1  0
  2  3  2  0
  2  4  1  0
  4  5  1  0
  5  6  1  0
  6  7  1  0
  7  8  2  0
  7  9  1  0
  6 10  1  0
 10 11  1  0
 11 12  2  0
 12 13  1  0
 13 14  2  0
 14 15  1  0
 15 16  2  0
 16 17  1  0
 10 18  1  0
 18  4  1  0
 16 11  1  0
  1 19  1  0
  1 20  1  0
  1 21  1  0
  5 22  1  0
  5 23  1  0
  6 24  1  0
  9 25  1  0
 10 26  1  0
 12 27  1  0
 13 28  1  0
 14 29  1  0
 15 30  1  0
 18 31  1  0
 18 32  1  0
M  END
>  <Energy>  (632) 
57.923501633233997

>  <compound_id>  (632) 
3618

>  <target_id>  (632) 
1

>  <reference_id>  (632) 
12

>  <inspiration_ids>  (632) 
[124, 12]

>  <energy_score>  (632) 
45.423719308922074

>  <distance_score>  (632) 
2.200507786500539

>  <path>  (632) 
/opt/xchem-fragalysis-2/maxwin/BulkDock/SCRATCH/505734/C3618-P12/C3618-P12.minimised.mol

>  <scratch_subdir>  (632) 
/opt/xchem-fragalysis-2/maxwin/BulkDock/SCRATCH/505734/C3618-P12

>  <fragmenstein_runtime>  (632) 
61.958553314208984

>  <fragmenstein_outcome>  (632) 
too moved

>  <fragmenstein_mode>  (632) 
expansion

>  <fragmenstein_error>  (632) 


$$$$
C3620-P124
     RDKit          3D

 39 40  0  0  0  0  0  0  0  0999 V2000
   17.7938    2.1566   16.9205 C   0  0  0  0  0  0  0  0  0  0  0  0
   17.9582    0.8828   17.7211 C   0  0  0  0  0  0  0  0  0  0  0  0
   18.2255    0.8811   18.8661 O   0  0  0  0  0  0  0  0  0  0  0  0
   17.7110   -0.2712   16.7704 N   0  0  0  0  0  0  0  0  0  0  0  0
   17.8323   -1.7522   16.9791 C   0  0  0  0  0  0  0  0  0  0  0  0
   17.2018   -2.5599   15.8538 C   0  0  0  0  0  0  0  0  0  0  0  0
   17.1285   -4.0310   16.1955 C   0  0  0  0  0  0  0  0  0  0  0  0
   16.3219   -4.8616   15.8154 O   0  0  0  0  0  0  0  0  0  0  0  0
   18.1688   -4.4413   16.9531 O   0  0  0  0  0  0  0  0  0  0  0  0
   15.9763   -1.6985   15.6620 C   0  0  0  0  0  0  0  0  0  0  0  0
   14.5486   -2.1934   15.6905 C   0  0  0  0  0  0  0  0  0  0  0  0
   13.6933   -1.7448   14.6664 C   0  0  0  0  0  0  0  0  0  0  0  0
   12.3817   -2.1812   14.6020 C   0  0  0  0  0  0  0  0  0  0  0  0
   11.6139   -1.7530   13.6014 F   0  0  0  0  0  0  0  0  0  0  0  0
   11.8860   -3.0741   15.5338 C   0  0  0  0  0  0  0  0  0  0  0  0
   12.7123   -3.5062   16.5777 C   0  0  0  0  0  0  0  0  0  0  0  0
   14.0249   -3.0347   16.6923 C   0  0  0  0  0  0  0  0  0  0  0  0
   14.8978   -3.3336   17.6957 O   0  0  0  0  0  0  0  0  0  0  0  0
   14.4835   -3.9152   18.9224 C   0  0  0  0  0  0  0  0  0  0  0  0
   14.4107   -2.8928   20.0363 C   0  0  0  0  0  0  0  0  0  0  0  0
   14.6421   -1.6976   19.9463 O   0  0  0  0  0  0  0  0  0  0  0  0
   13.9496   -3.4430   21.1797 O   0  0  0  0  0  0  0  0  0  0  0  0
   16.2542   -0.6549   16.7439 C   0  0  0  0  0  0  0  0  0  0  0  0
   17.8054    1.9668   15.8435 H   0  0  0  0  0  0  0  0  0  0  0  0
   16.8451    2.6278   17.1906 H   0  0  0  0  0  0  0  0  0  0  0  0
   18.6209    2.8327   17.1551 H   0  0  0  0  0  0  0  0  0  0  0  0
   18.9183   -1.9264   16.9691 H   0  0  0  0  0  0  0  0  0  0  0  0
   17.5468   -2.0508   18.0040 H   0  0  0  0  0  0  0  0  0  0  0  0
   17.8341   -2.4897   14.9579 H   0  0  0  0  0  0  0  0  0  0  0  0
   18.0476   -5.4118   17.0301 H   0  0  0  0  0  0  0  0  0  0  0  0
   16.1250   -1.1967   14.6930 H   0  0  0  0  0  0  0  0  0  0  0  0
   14.0439   -1.0689   13.8904 H   0  0  0  0  0  0  0  0  0  0  0  0
   10.8768   -3.4545   15.4229 H   0  0  0  0  0  0  0  0  0  0  0  0
   12.3040   -4.2370   17.2641 H   0  0  0  0  0  0  0  0  0  0  0  0
   13.5230   -4.4283   18.8647 H   0  0  0  0  0  0  0  0  0  0  0  0
   15.2492   -4.6457   19.2037 H   0  0  0  0  0  0  0  0  0  0  0  0
   13.6161   -2.6784   21.7168 H   0  0  0  0  0  0  0  0  0  0  0  0
   15.8690   -0.8814   17.7520 H   0  0  0  0  0  0  0  0  0  0  0  0
   15.7101    0.2641   16.4772 H   0  0  0  0  0  0  0  0  0  0  0  0
  1  2  1  0
  2  3  2  0
  2  4  1  0
  4  5  1  0
  5  6  1  0
  6  7  1  0
  7  8  2  0
  7  9  1  0
  6 10  1  0
 10 11  1  0
 11 12  2  0
 12 13  1  0
 13 14  1  0
 13 15  2  0
 15 16  1  0
 16 17  2  0
 17 18  1  0
 18 19  1  0
 19 20  1  0
 20 21  2  0
 20 22  1  0
 10 23  1  0
 23  4  1  0
 17 11  1  0
  1 24  1  0
  1 25  1  0
  1 26  1  0
  5 27  1  0
  5 28  1  0
  6 29  1  0
  9 30  1  0
 10 31  1  0
 12 32  1  0
 15 33  1  0
 16 34  1  0
 19 35  1  0
 19 36  1  0
 22 37  1  0
 23 38  1  0
 23 39  1  0
M  END
>  <Energy>  (633) 
68.209443640647621

>  <compound_id>  (633) 
3620

>  <target_id>  (633) 
1

>  <reference_id>  (633) 
124

>  <inspiration_ids>  (633) 
[124, 20]

>  <energy_score>  (633) 
24.23175588456658

>  <distance_score>  (633) 
1.6339554590700176

>  <path>  (633) 
/opt/xchem-fragalysis-2/maxwin/BulkDock/SCRATCH/505734/C3620-P124/C3620-P124.minimised.mol

>  <scratch_subdir>  (633) 
/opt/xchem-fragalysis-2/maxwin/BulkDock/SCRATCH/505734/C3620-P124

>  <fragmenstein_runtime>  (633) 
61.09851336479187

>  <fragmenstein_outcome>  (633) 
too moved

>  <fragmenstein_mode>  (633) 
expansion

>  <fragmenstein_error>  (633) 


$$$$
C3620-P20
     RDKit          3D

 39 40  0  0  0  0  0  0  0  0999 V2000
   18.6980    1.4493   15.4821 C   0  0  0  0  0  0  0  0  0  0  0  0
   18.5493   -0.0187   15.8197 C   0  0  0  0  0  0  0  0  0  0  0  0
   18.9464   -0.4839   16.8245 O   0  0  0  0  0  0  0  0  0  0  0  0
   17.8358   -0.6719   14.6493 N   0  0  0  0  0  0  0  0  0  0  0  0
   17.5153   -2.1189   14.3801 C   0  0  0  0  0  0  0  0  0  0  0  0
   16.7248   -2.7928   15.4916 C   0  0  0  0  0  0  0  0  0  0  0  0
   17.6740   -3.2959   16.5544 C   0  0  0  0  0  0  0  0  0  0  0  0
   18.6520   -3.9989   16.3415 O   0  0  0  0  0  0  0  0  0  0  0  0
   17.3616   -2.9572   17.8148 O   0  0  0  0  0  0  0  0  0  0  0  0
   15.8115   -1.6517   15.8648 C   0  0  0  0  0  0  0  0  0  0  0  0
   14.3204   -1.9675   15.7729 C   0  0  0  0  0  0  0  0  0  0  0  0
   13.4425   -1.1745   15.0167 C   0  0  0  0  0  0  0  0  0  0  0  0
   12.1095   -1.5338   14.8686 C   0  0  0  0  0  0  0  0  0  0  0  0
   11.3069   -0.7369   14.1553 F   0  0  0  0  0  0  0  0  0  0  0  0
   11.6116   -2.6861   15.4530 C   0  0  0  0  0  0  0  0  0  0  0  0
   12.4396   -3.4419   16.2836 C   0  0  0  0  0  0  0  0  0  0  0  0
   13.7725   -3.0593   16.4780 C   0  0  0  0  0  0  0  0  0  0  0  0
   14.6294   -3.8052   17.2388 O   0  0  0  0  0  0  0  0  0  0  0  0
   14.2506   -4.0230   18.5911 C   0  0  0  0  0  0  0  0  0  0  0  0
   14.3215   -2.8571   19.5682 C   0  0  0  0  0  0  0  0  0  0  0  0
   14.6174   -1.6977   19.3337 O   0  0  0  0  0  0  0  0  0  0  0  0
   13.9044   -3.2420   20.7980 O   0  0  0  0  0  0  0  0  0  0  0  0
   16.3401   -0.6431   14.8360 C   0  0  0  0  0  0  0  0  0  0  0  0
   18.4553    1.6567   14.4362 H   0  0  0  0  0  0  0  0  0  0  0  0
   18.0317    2.0315   16.1241 H   0  0  0  0  0  0  0  0  0  0  0  0
   19.7348    1.7500   15.6575 H   0  0  0  0  0  0  0  0  0  0  0  0
   17.0611   -2.2438   13.3816 H   0  0  0  0  0  0  0  0  0  0  0  0
   18.5009   -2.5930   14.2786 H   0  0  0  0  0  0  0  0  0  0  0  0
   16.2013   -3.6713   15.0993 H   0  0  0  0  0  0  0  0  0  0  0  0
   18.1566   -3.2112   18.3290 H   0  0  0  0  0  0  0  0  0  0  0  0
   16.0022   -1.2568   16.8692 H   0  0  0  0  0  0  0  0  0  0  0  0
   13.7654   -0.2671   14.5167 H   0  0  0  0  0  0  0  0  0  0  0  0
   10.5915   -2.9853   15.2449 H   0  0  0  0  0  0  0  0  0  0  0  0
   12.0537   -4.3545   16.7285 H   0  0  0  0  0  0  0  0  0  0  0  0
   13.2472   -4.4586   18.6468 H   0  0  0  0  0  0  0  0  0  0  0  0
   14.9491   -4.7745   18.9776 H   0  0  0  0  0  0  0  0  0  0  0  0
   13.7430   -2.4200   21.3207 H   0  0  0  0  0  0  0  0  0  0  0  0
   16.0958    0.3642   15.2052 H   0  0  0  0  0  0  0  0  0  0  0  0
   15.8490   -0.6810   13.8476 H   0  0  0  0  0  0  0  0  0  0  0  0
  1  2  1  0
  2  3  2  0
  2  4  1  0
  4  5  1  0
  5  6  1  0
  6  7  1  0
  7  8  2  0
  7  9  1  0
  6 10  1  0
 10 11  1  0
 11 12  2  0
 12 13  1  0
 13 14  1  0
 13 15  2  0
 15 16  1  0
 16 17  2  0
 17 18  1  0
 18 19  1  0
 19 20  1  0
 20 21  2  0
 20 22  1  0
 10 23  1  0
 23  4  1  0
 17 11  1  0
  1 24  1  0
  1 25  1  0
  1 26  1  0
  5 27  1  0
  5 28  1  0
  6 29  1  0
  9 30  1  0
 10 31  1  0
 12 32  1  0
 15 33  1  0
 16 34  1  0
 19 35  1  0
 19 36  1  0
 22 37  1  0
 23 38  1  0
 23 39  1  0
M  END
>  <Energy>  (634) 
63.624102474034537

>  <compound_id>  (634) 
3620

>  <target_id>  (634) 
1

>  <reference_id>  (634) 
20

>  <inspiration_ids>  (634) 
[124, 20]

>  <energy_score>  (634) 
19.646414717951103

>  <distance_score>  (634) 
2.295341709697603

>  <path>  (634) 
/opt/xchem-fragalysis-2/maxwin/BulkDock/SCRATCH/505734/C3620-P20/C3620-P20.minimised.mol

>  <scratch_subdir>  (634) 
/opt/xchem-fragalysis-2/maxwin/BulkDock/SCRATCH/505734/C3620-P20

>  <fragmenstein_runtime>  (634) 
61.22322630882263

>  <fragmenstein_outcome>  (634) 
too moved

>  <fragmenstein_mode>  (634) 
expansion

>  <fragmenstein_error>  (634) 


$$$$
C3621-P124
     RDKit          3D

 51 53  0  0  0  0  0  0  0  0999 V2000
   16.3618   -1.9976   20.8412 C   0  0  0  0  0  0  0  0  0  0  0  0
   17.2732   -2.2771   19.6646 C   0  0  0  0  0  0  0  0  0  0  0  0
   18.3566   -2.7158   19.7875 O   0  0  0  0  0  0  0  0  0  0  0  0
   16.5047   -1.8989   18.4146 N   0  0  0  0  0  0  0  0  0  0  0  0
   16.7440   -0.4557   18.0410 C   0  0  0  0  0  0  0  0  0  0  0  0
   15.9060   -0.0131   16.8604 C   0  0  0  0  0  0  0  0  0  0  0  0
   16.4542    1.2288   16.2089 C   0  0  0  0  0  0  0  0  0  0  0  0
   15.8083    2.2643   16.1285 O   0  0  0  0  0  0  0  0  0  0  0  0
   17.6999    1.1404   15.7033 O   0  0  0  0  0  0  0  0  0  0  0  0
   15.9608   -1.2535   16.0217 C   0  0  0  0  0  0  0  0  0  0  0  0
   14.5731   -1.8099   15.7020 C   0  0  0  0  0  0  0  0  0  0  0  0
   13.9733   -2.7523   16.5629 C   0  0  0  0  0  0  0  0  0  0  0  0
   12.7087   -3.2743   16.3038 C   0  0  0  0  0  0  0  0  0  0  0  0
   12.0065   -2.8562   15.1846 C   0  0  0  0  0  0  0  0  0  0  0  0
   12.5856   -1.9413   14.3039 C   0  0  0  0  0  0  0  0  0  0  0  0
   13.8594   -1.3893   14.5418 C   0  0  0  0  0  0  0  0  0  0  0  0
   14.5366   -0.4684   13.5243 C   0  0  0  0  0  0  0  0  0  0  0  0
   13.7187    0.2102   12.4994 N   0  0  0  0  0  0  0  0  0  0  0  0
   14.5910    0.8770   11.5098 C   0  0  0  0  0  0  0  0  0  0  0  0
   14.7645    2.3810   11.7246 C   0  0  0  0  0  0  0  0  0  0  0  0
   13.4145    3.0990   11.6916 C   0  0  0  0  0  0  0  0  0  0  0  0
   13.1334    3.5916   10.3802 O   0  0  0  0  0  0  0  0  0  0  0  0
   12.2630    2.2012   12.1299 C   0  0  0  0  0  0  0  0  0  0  0  0
   12.7499    1.1395   13.1085 C   0  0  0  0  0  0  0  0  0  0  0  0
   16.8555   -2.0651   16.9622 C   0  0  0  0  0  0  0  0  0  0  0  0
   15.3298   -1.8176   20.5267 H   0  0  0  0  0  0  0  0  0  0  0  0
   16.7304   -1.1184   21.3762 H   0  0  0  0  0  0  0  0  0  0  0  0
   16.3670   -2.8647   21.5077 H   0  0  0  0  0  0  0  0  0  0  0  0
   17.8228   -0.2254   17.9830 H   0  0  0  0  0  0  0  0  0  0  0  0
   16.4234    0.1293   18.9160 H   0  0  0  0  0  0  0  0  0  0  0  0
   14.8876    0.2101   17.1969 H   0  0  0  0  0  0  0  0  0  0  0  0
   18.1875    0.3026   15.8020 H   0  0  0  0  0  0  0  0  0  0  0  0
   16.5121   -1.1441   15.0814 H   0  0  0  0  0  0  0  0  0  0  0  0
   14.4752   -3.1077   17.4597 H   0  0  0  0  0  0  0  0  0  0  0  0
   12.2826   -4.0224   16.9678 H   0  0  0  0  0  0  0  0  0  0  0  0
   11.0286   -3.2749   14.9611 H   0  0  0  0  0  0  0  0  0  0  0  0
   12.0363   -1.6820   13.4030 H   0  0  0  0  0  0  0  0  0  0  0  0
   15.2602   -1.1139   13.0079 H   0  0  0  0  0  0  0  0  0  0  0  0
   15.1015    0.3016   14.0576 H   0  0  0  0  0  0  0  0  0  0  0  0
   15.5773    0.3998   11.4516 H   0  0  0  0  0  0  0  0  0  0  0  0
   14.1465    0.7249   10.5210 H   0  0  0  0  0  0  0  0  0  0  0  0
   15.2433    2.5443   12.6984 H   0  0  0  0  0  0  0  0  0  0  0  0
   15.4360    2.7874   10.9597 H   0  0  0  0  0  0  0  0  0  0  0  0
   13.4698    3.9773   12.3444 H   0  0  0  0  0  0  0  0  0  0  0  0
   13.2268    2.8522    9.7550 H   0  0  0  0  0  0  0  0  0  0  0  0
   11.4809    2.8130   12.5961 H   0  0  0  0  0  0  0  0  0  0  0  0
   11.7847    1.7258   11.2647 H   0  0  0  0  0  0  0  0  0  0  0  0
   13.1761    1.6393   13.9880 H   0  0  0  0  0  0  0  0  0  0  0  0
   11.8743    0.5704   13.4262 H   0  0  0  0  0  0  0  0  0  0  0  0
   16.7388   -3.1395   16.7619 H   0  0  0  0  0  0  0  0  0  0  0  0
   17.9368   -1.9094   16.7934 H   0  0  0  0  0  0  0  0  0  0  0  0
  1  2  1  0
  2  3  2  0
  2  4  1  0
  4  5  1  0
  5  6  1  0
  6  7  1  0
  7  8  2  0
  7  9  1  0
  6 10  1  0
 10 11  1  0
 11 12  2  0
 12 13  1  0
 13 14  2  0
 14 15  1  0
 15 16  2  0
 16 17  1  0
 17 18  1  0
 18 19  1  0
 19 20  1  0
 20 21  1  0
 21 22  1  0
 21 23  1  0
 23 24  1  0
 10 25  1  0
 25  4  1  0
 16 11  1  0
 24 18  1  0
  1 26  1  0
  1 27  1  0
  1 28  1  0
  5 29  1  0
  5 30  1  0
  6 31  1  0
  9 32  1  0
 10 33  1  0
 12 34  1  0
 13 35  1  0
 14 36  1  0
 15 37  1  0
 17 38  1  0
 17 39  1  0
 19 40  1  0
 19 41  1  0
 20 42  1  0
 20 43  1  0
 21 44  1  0
 22 45  1  0
 23 46  1  0
 23 47  1  0
 24 48  1  0
 24 49  1  0
 25 50  1  0
 25 51  1  0
M  END
>  <Energy>  (635) 
83.618214419511531

>  <compound_id>  (635) 
3621

>  <target_id>  (635) 
1

>  <reference_id>  (635) 
124

>  <inspiration_ids>  (635) 
[124, 23]

>  <energy_score>  (635) 
6.667598437278741

>  <distance_score>  (635) 
3.1259966338756824

>  <path>  (635) 
/opt/xchem-fragalysis-2/maxwin/BulkDock/SCRATCH/505734/C3621-P124/C3621-P124.minimised.mol

>  <scratch_subdir>  (635) 
/opt/xchem-fragalysis-2/maxwin/BulkDock/SCRATCH/505734/C3621-P124

>  <fragmenstein_runtime>  (635) 
26.59701132774353

>  <fragmenstein_outcome>  (635) 
too moved

>  <fragmenstein_mode>  (635) 
expansion

>  <fragmenstein_error>  (635) 


$$$$
C3621-P23
     RDKit          3D

 51 53  0  0  0  0  0  0  0  0999 V2000
   20.0634   -0.2565   17.8319 C   0  0  0  0  0  0  0  0  0  0  0  0
   18.8555   -0.1988   16.9214 C   0  0  0  0  0  0  0  0  0  0  0  0
   18.6182    0.7280   16.2373 O   0  0  0  0  0  0  0  0  0  0  0  0
   18.1050   -1.5053   17.0991 N   0  0  0  0  0  0  0  0  0  0  0  0
   17.0768   -1.4027   18.2127 C   0  0  0  0  0  0  0  0  0  0  0  0
   15.8070   -0.6484   17.8361 C   0  0  0  0  0  0  0  0  0  0  0  0
   15.8720    0.8523   17.9665 C   0  0  0  0  0  0  0  0  0  0  0  0
   15.1823    1.6466   17.3463 O   0  0  0  0  0  0  0  0  0  0  0  0
   16.7079    1.2912   18.9221 O   0  0  0  0  0  0  0  0  0  0  0  0
   15.7198   -1.0721   16.3972 C   0  0  0  0  0  0  0  0  0  0  0  0
   14.3983   -1.6958   15.9806 C   0  0  0  0  0  0  0  0  0  0  0  0
   13.9251   -2.8187   16.6929 C   0  0  0  0  0  0  0  0  0  0  0  0
   12.7050   -3.4156   16.3866 C   0  0  0  0  0  0  0  0  0  0  0  0
   11.9320   -2.9177   15.3477 C   0  0  0  0  0  0  0  0  0  0  0  0
   12.3822   -1.8227   14.6154 C   0  0  0  0  0  0  0  0  0  0  0  0
   13.6002   -1.1819   14.9261 C   0  0  0  0  0  0  0  0  0  0  0  0
   13.9670    0.0594   14.1213 C   0  0  0  0  0  0  0  0  0  0  0  0
   14.5739   -0.2160   12.8039 N   0  0  0  0  0  0  0  0  0  0  0  0
   15.8255   -0.9875   12.9108 C   0  0  0  0  0  0  0  0  0  0  0  0
   16.5660   -1.1435   11.5811 C   0  0  0  0  0  0  0  0  0  0  0  0
   15.7466   -0.6016   10.4254 C   0  0  0  0  0  0  0  0  0  0  0  0
   16.4975   -0.7144    9.2239 O   0  0  0  0  0  0  0  0  0  0  0  0
   15.3563    0.8477   10.6844 C   0  0  0  0  0  0  0  0  0  0  0  0
   14.8271    1.0559   12.1065 C   0  0  0  0  0  0  0  0  0  0  0  0
   16.8998   -2.0449   16.3852 C   0  0  0  0  0  0  0  0  0  0  0  0
   20.9487    0.0470   17.2661 H   0  0  0  0  0  0  0  0  0  0  0  0
   20.2363   -1.2640   18.2203 H   0  0  0  0  0  0  0  0  0  0  0  0
   19.9100    0.4275   18.6707 H   0  0  0  0  0  0  0  0  0  0  0  0
   17.5856   -0.9036   19.0474 H   0  0  0  0  0  0  0  0  0  0  0  0
   16.8635   -2.4072   18.6206 H   0  0  0  0  0  0  0  0  0  0  0  0
   14.9768   -0.9751   18.4725 H   0  0  0  0  0  0  0  0  0  0  0  0
   16.6600    2.2695   18.8491 H   0  0  0  0  0  0  0  0  0  0  0  0
   15.9844   -0.2380   15.7459 H   0  0  0  0  0  0  0  0  0  0  0  0
   14.4995   -3.2473   17.5116 H   0  0  0  0  0  0  0  0  0  0  0  0
   12.3666   -4.2843   16.9463 H   0  0  0  0  0  0  0  0  0  0  0  0
   10.9932   -3.3962   15.0829 H   0  0  0  0  0  0  0  0  0  0  0  0
   11.7727   -1.4499   13.7941 H   0  0  0  0  0  0  0  0  0  0  0  0
   14.5809    0.7467   14.7119 H   0  0  0  0  0  0  0  0  0  0  0  0
   13.0310    0.6126   13.9588 H   0  0  0  0  0  0  0  0  0  0  0  0
   16.5151   -0.5163   13.6204 H   0  0  0  0  0  0  0  0  0  0  0  0
   15.6059   -1.9942   13.2845 H   0  0  0  0  0  0  0  0  0  0  0  0
   17.5294   -0.6183   11.6265 H   0  0  0  0  0  0  0  0  0  0  0  0
   16.8130   -2.1975   11.4017 H   0  0  0  0  0  0  0  0  0  0  0  0
   14.8491   -1.2170   10.3108 H   0  0  0  0  0  0  0  0  0  0  0  0
   15.9488   -0.3851    8.4904 H   0  0  0  0  0  0  0  0  0  0  0  0
   16.2178    1.5059   10.5124 H   0  0  0  0  0  0  0  0  0  0  0  0
   14.6045    1.1568    9.9485 H   0  0  0  0  0  0  0  0  0  0  0  0
   15.5429    1.6686   12.6715 H   0  0  0  0  0  0  0  0  0  0  0  0
   13.9003    1.6401   12.0403 H   0  0  0  0  0  0  0  0  0  0  0  0
   16.6878   -3.0816   16.6959 H   0  0  0  0  0  0  0  0  0  0  0  0
   17.2284   -2.1519   15.3421 H   0  0  0  0  0  0  0  0  0  0  0  0
  1  2  1  0
  2  3  2  0
  2  4  1  0
  4  5  1  0
  5  6  1  0
  6  7  1  0
  7  8  2  0
  7  9  1  0
  6 10  1  0
 10 11  1  0
 11 12  2  0
 12 13  1  0
 13 14  2  0
 14 15  1  0
 15 16  2  0
 16 17  1  0
 17 18  1  0
 18 19  1  0
 19 20  1  0
 20 21  1  0
 21 22  1  0
 21 23  1  0
 23 24  1  0
 10 25  1  0
 25  4  1  0
 16 11  1  0
 24 18  1  0
  1 26  1  0
  1 27  1  0
  1 28  1  0
  5 29  1  0
  5 30  1  0
  6 31  1  0
  9 32  1  0
 10 33  1  0
 12 34  1  0
 13 35  1  0
 14 36  1  0
 15 37  1  0
 17 38  1  0
 17 39  1  0
 19 40  1  0
 19 41  1  0
 20 42  1  0
 20 43  1  0
 21 44  1  0
 22 45  1  0
 23 46  1  0
 23 47  1  0
 24 48  1  0
 24 49  1  0
 25 50  1  0
 25 51  1  0
M  END
>  <Energy>  (636) 
69.67331680973399

>  <compound_id>  (636) 
3621

>  <target_id>  (636) 
1

>  <reference_id>  (636) 
23

>  <inspiration_ids>  (636) 
[124, 23]

>  <energy_score>  (636) 
-7.277299172499909

>  <distance_score>  (636) 
2.6408408502848193

>  <path>  (636) 
/opt/xchem-fragalysis-2/maxwin/BulkDock/SCRATCH/505734/C3621-P23/C3621-P23.minimised.mol

>  <scratch_subdir>  (636) 
/opt/xchem-fragalysis-2/maxwin/BulkDock/SCRATCH/505734/C3621-P23

>  <fragmenstein_runtime>  (636) 
25.594934940338135

>  <fragmenstein_outcome>  (636) 
too moved

>  <fragmenstein_mode>  (636) 
expansion

>  <fragmenstein_error>  (636) 


$$$$
C3622-P124
     RDKit          3D

 34 35  0  0  0  0  0  0  0  0999 V2000
   19.9587   -3.2078   17.2611 C   0  0  0  0  0  0  0  0  0  0  0  0
   18.9451   -3.8762   18.1656 C   0  0  0  0  0  0  0  0  0  0  0  0
   19.0927   -4.9604   18.5951 O   0  0  0  0  0  0  0  0  0  0  0  0
   17.8048   -2.8960   18.3495 N   0  0  0  0  0  0  0  0  0  0  0  0
   16.5774   -2.9744   19.2112 C   0  0  0  0  0  0  0  0  0  0  0  0
   15.4648   -2.0200   18.8292 C   0  0  0  0  0  0  0  0  0  0  0  0
   15.5865   -0.6808   19.5149 C   0  0  0  0  0  0  0  0  0  0  0  0
   16.1909    0.2824   19.0703 O   0  0  0  0  0  0  0  0  0  0  0  0
   14.9231   -0.6121   20.6927 O   0  0  0  0  0  0  0  0  0  0  0  0
   15.7086   -1.9702   17.3466 C   0  0  0  0  0  0  0  0  0  0  0  0
   14.4914   -2.2018   16.4877 C   0  0  0  0  0  0  0  0  0  0  0  0
   13.5825   -3.2468   16.7084 C   0  0  0  0  0  0  0  0  0  0  0  0
   12.4173   -3.3438   15.9474 C   0  0  0  0  0  0  0  0  0  0  0  0
   12.1483   -2.4050   14.9531 C   0  0  0  0  0  0  0  0  0  0  0  0
   13.0156   -1.3327   14.7489 C   0  0  0  0  0  0  0  0  0  0  0  0
   12.7602   -0.3907   13.7474 N   0  0  0  0  0  0  0  0  0  0  0  0
   14.2146   -1.2825   15.4639 C   0  0  0  0  0  0  0  0  0  0  0  0
   16.7503   -3.0752   17.2801 C   0  0  0  0  0  0  0  0  0  0  0  0
   20.9590   -3.3577   17.6770 H   0  0  0  0  0  0  0  0  0  0  0  0
   19.7839   -2.1318   17.1764 H   0  0  0  0  0  0  0  0  0  0  0  0
   19.9010   -3.6588   16.2671 H   0  0  0  0  0  0  0  0  0  0  0  0
   16.9449   -2.7353   20.2192 H   0  0  0  0  0  0  0  0  0  0  0  0
   16.2402   -4.0217   19.3131 H   0  0  0  0  0  0  0  0  0  0  0  0
   14.4961   -2.4467   19.1036 H   0  0  0  0  0  0  0  0  0  0  0  0
   14.4202   -1.3984   20.9919 H   0  0  0  0  0  0  0  0  0  0  0  0
   16.1876   -1.0283   17.0508 H   0  0  0  0  0  0  0  0  0  0  0  0
   13.7548   -3.9923   17.4792 H   0  0  0  0  0  0  0  0  0  0  0  0
   11.7226   -4.1624   16.1223 H   0  0  0  0  0  0  0  0  0  0  0  0
   11.2483   -2.5054   14.3507 H   0  0  0  0  0  0  0  0  0  0  0  0
   11.7658   -0.3133   13.5369 H   0  0  0  0  0  0  0  0  0  0  0  0
   13.1355    0.5288   13.9666 H   0  0  0  0  0  0  0  0  0  0  0  0
   14.9126   -0.4726   15.2564 H   0  0  0  0  0  0  0  0  0  0  0  0
   16.3621   -4.1093   17.2474 H   0  0  0  0  0  0  0  0  0  0  0  0
   17.2803   -2.9838   16.3201 H   0  0  0  0  0  0  0  0  0  0  0  0
  1  2  1  0
  2  3  2  0
  2  4  1  0
  4  5  1  0
  5  6  1  0
  6  7  1  0
  7  8  2  0
  7  9  1  0
  6 10  1  0
 10 11  1  0
 11 12  2  0
 12 13  1  0
 13 14  2  0
 14 15  1  0
 15 16  1  0
 15 17  2  0
 10 18  1  0
 18  4  1  0
 17 11  1  0
  1 19  1  0
  1 20  1  0
  1 21  1  0
  5 22  1  0
  5 23  1  0
  6 24  1  0
  9 25  1  0
 10 26  1  0
 12 27  1  0
 13 28  1  0
 14 29  1  0
 16 30  1  0
 16 31  1  0
 17 32  1  0
 18 33  1  0
 18 34  1  0
M  END
>  <Energy>  (637) 
54.614562236733136

>  <compound_id>  (637) 
3622

>  <target_id>  (637) 
1

>  <reference_id>  (637) 
124

>  <inspiration_ids>  (637) 
[124, 26]

>  <energy_score>  (637) 
42.3614348787401

>  <distance_score>  (637) 
2.2501075898044767

>  <path>  (637) 
/opt/xchem-fragalysis-2/maxwin/BulkDock/SCRATCH/505734/C3622-P124/C3622-P124.minimised.mol

>  <scratch_subdir>  (637) 
/opt/xchem-fragalysis-2/maxwin/BulkDock/SCRATCH/505734/C3622-P124

>  <fragmenstein_runtime>  (637) 
99.41411662101746

>  <fragmenstein_outcome>  (637) 
too moved

>  <fragmenstein_mode>  (637) 
expansion

>  <fragmenstein_error>  (637) 


$$$$
C3622-P26
     RDKit          3D

 34 35  0  0  0  0  0  0  0  0999 V2000
   19.6308   -2.2065   17.8941 C   0  0  0  0  0  0  0  0  0  0  0  0
   18.6565   -3.0954   18.6373 C   0  0  0  0  0  0  0  0  0  0  0  0
   18.8988   -4.2115   18.9161 O   0  0  0  0  0  0  0  0  0  0  0  0
   17.4175   -2.2658   18.9035 N   0  0  0  0  0  0  0  0  0  0  0  0
   16.1775   -2.5850   19.6859 C   0  0  0  0  0  0  0  0  0  0  0  0
   15.0049   -1.6661   19.4097 C   0  0  0  0  0  0  0  0  0  0  0  0
   15.0953   -0.3965   20.2247 C   0  0  0  0  0  0  0  0  0  0  0  0
   15.8726    0.5178   19.9935 O   0  0  0  0  0  0  0  0  0  0  0  0
   14.2297   -0.3322   21.2599 O   0  0  0  0  0  0  0  0  0  0  0  0
   15.2386   -1.4421   17.9404 C   0  0  0  0  0  0  0  0  0  0  0  0
   14.0689   -1.7638   17.0391 C   0  0  0  0  0  0  0  0  0  0  0  0
   13.4087   -3.0007   17.0575 C   0  0  0  0  0  0  0  0  0  0  0  0
   12.3514   -3.2502   16.1834 C   0  0  0  0  0  0  0  0  0  0  0  0
   11.9413   -2.2705   15.2803 C   0  0  0  0  0  0  0  0  0  0  0  0
   12.5465   -1.0145   15.2769 C   0  0  0  0  0  0  0  0  0  0  0  0
   12.2169   -0.0757   14.2971 N   0  0  0  0  0  0  0  0  0  0  0  0
   13.6320   -0.7888   16.1276 C   0  0  0  0  0  0  0  0  0  0  0  0
   16.4235   -2.3877   17.7721 C   0  0  0  0  0  0  0  0  0  0  0  0
   20.6172   -2.2959   18.3579 H   0  0  0  0  0  0  0  0  0  0  0  0
   19.3335   -1.1546   17.9276 H   0  0  0  0  0  0  0  0  0  0  0  0
   19.6833   -2.5296   16.8510 H   0  0  0  0  0  0  0  0  0  0  0  0
   15.9271   -3.6581   19.6078 H   0  0  0  0  0  0  0  0  0  0  0  0
   16.4902   -2.4821   20.7349 H   0  0  0  0  0  0  0  0  0  0  0  0
   14.0693   -2.1782   19.6470 H   0  0  0  0  0  0  0  0  0  0  0  0
   13.5865   -1.0611   21.4128 H   0  0  0  0  0  0  0  0  0  0  0  0
   15.5776   -0.4175   17.7415 H   0  0  0  0  0  0  0  0  0  0  0  0
   13.7109   -3.7918   17.7390 H   0  0  0  0  0  0  0  0  0  0  0  0
   11.8590   -4.2197   16.1944 H   0  0  0  0  0  0  0  0  0  0  0  0
   11.1460   -2.4986   14.5739 H   0  0  0  0  0  0  0  0  0  0  0  0
   12.4201    0.8879   14.5385 H   0  0  0  0  0  0  0  0  0  0  0  0
   11.2939   -0.2102   13.8877 H   0  0  0  0  0  0  0  0  0  0  0  0
   14.1522    0.1664   16.0696 H   0  0  0  0  0  0  0  0  0  0  0  0
   16.9675   -2.0855   16.8645 H   0  0  0  0  0  0  0  0  0  0  0  0
   16.1750   -3.4444   17.5636 H   0  0  0  0  0  0  0  0  0  0  0  0
  1  2  1  0
  2  3  2  0
  2  4  1  0
  4  5  1  0
  5  6  1  0
  6  7  1  0
  7  8  2  0
  7  9  1  0
  6 10  1  0
 10 11  1  0
 11 12  2  0
 12 13  1  0
 13 14  2  0
 14 15  1  0
 15 16  1  0
 15 17  2  0
 10 18  1  0
 18  4  1  0
 17 11  1  0
  1 19  1  0
  1 20  1  0
  1 21  1  0
  5 22  1  0
  5 23  1  0
  6 24  1  0
  9 25  1  0
 10 26  1  0
 12 27  1  0
 13 28  1  0
 14 29  1  0
 16 30  1  0
 16 31  1  0
 17 32  1  0
 18 33  1  0
 18 34  1  0
M  END
>  <Energy>  (638) 
53.601748382405795

>  <compound_id>  (638) 
3622

>  <target_id>  (638) 
1

>  <reference_id>  (638) 
26

>  <inspiration_ids>  (638) 
[124, 26]

>  <energy_score>  (638) 
41.34862102441164

>  <distance_score>  (638) 
2.317038950498527

>  <path>  (638) 
/opt/xchem-fragalysis-2/maxwin/BulkDock/SCRATCH/505734/C3622-P26/C3622-P26.minimised.mol

>  <scratch_subdir>  (638) 
/opt/xchem-fragalysis-2/maxwin/BulkDock/SCRATCH/505734/C3622-P26

>  <fragmenstein_runtime>  (638) 
99.10675764083862

>  <fragmenstein_outcome>  (638) 
too moved

>  <fragmenstein_mode>  (638) 
expansion

>  <fragmenstein_error>  (638) 


$$$$
C3623-P124
     RDKit          3D

 53 55  0  0  0  0  0  0  0  0999 V2000
   11.7353   -2.1404   14.3498 C   0  0  0  0  0  0  0  0  0  0  0  0
   13.1397   -1.9660   14.8837 C   0  0  0  0  0  0  0  0  0  0  0  0
   13.4035   -2.8982   16.0625 C   0  0  0  0  0  0  0  0  0  0  0  0
   14.7982   -2.7032   16.5822 C   0  0  0  0  0  0  0  0  0  0  0  0
   15.8865   -3.3194   15.9570 C   0  0  0  0  0  0  0  0  0  0  0  0
   17.1738   -3.1791   16.4642 C   0  0  0  0  0  0  0  0  0  0  0  0
   17.3766   -2.3876   17.5993 C   0  0  0  0  0  0  0  0  0  0  0  0
   18.9007   -2.4528   18.4638 C   0  0  0  0  0  0  0  0  0  0  0  0
   18.4343   -3.9089   19.3985 C   0  0  0  0  0  0  0  0  0  0  0  0
   18.5955   -5.0502   18.9594 O   0  0  0  0  0  0  0  0  0  0  0  0
   17.6317   -3.6637   20.6769 C   0  0  0  0  0  0  0  0  0  0  0  0
   16.2060   -4.0646   20.5216 C   0  0  0  0  0  0  0  0  0  0  0  0
   15.0543   -3.5596   21.0877 C   0  0  0  0  0  0  0  0  0  0  0  0
   14.0141   -4.3337   20.5473 C   0  0  0  0  0  0  0  0  0  0  0  0
   14.4617   -5.2613   19.7012 N   0  0  0  0  0  0  0  0  0  0  0  0
   15.7966   -5.1022   19.7229 N   0  0  0  0  0  0  0  0  0  0  0  0
   20.0913   -2.7870   17.3721 C   0  0  0  0  0  0  0  0  0  0  0  0
   20.5212   -4.2164   17.2329 C   0  0  0  0  0  0  0  0  0  0  0  0
   20.1889   -4.9535   16.3189 O   0  0  0  0  0  0  0  0  0  0  0  0
   21.3190   -4.6630   18.2156 O   0  0  0  0  0  0  0  0  0  0  0  0
   20.8361   -1.9480   18.2731 C   0  0  0  0  0  0  0  0  0  0  0  0
   19.2175   -1.8317   18.8083 C   0  0  0  0  0  0  0  0  0  0  0  0
   19.0451   -0.8337   19.6103 N   0  0  0  0  0  0  0  0  0  0  0  0
   18.6844    0.5447   19.3387 C   0  0  0  0  0  0  0  0  0  0  0  0
   18.8137    1.3201   20.6298 C   0  0  0  0  0  0  0  0  0  0  0  0
   18.3331    1.0779   18.3304 O   0  0  0  0  0  0  0  0  0  0  0  0
   16.3067   -1.7138   18.1970 C   0  0  0  0  0  0  0  0  0  0  0  0
   15.0294   -1.8869   17.6905 C   0  0  0  0  0  0  0  0  0  0  0  0
   11.5547   -1.3880   13.5791 H   0  0  0  0  0  0  0  0  0  0  0  0
   11.6009   -3.1313   13.9065 H   0  0  0  0  0  0  0  0  0  0  0  0
   10.9859   -2.0141   15.1364 H   0  0  0  0  0  0  0  0  0  0  0  0
   13.2843   -0.9219   15.1838 H   0  0  0  0  0  0  0  0  0  0  0  0
   13.8567   -2.1434   14.0736 H   0  0  0  0  0  0  0  0  0  0  0  0
   13.2588   -3.9470   15.7918 H   0  0  0  0  0  0  0  0  0  0  0  0
   12.6762   -2.7251   16.8621 H   0  0  0  0  0  0  0  0  0  0  0  0
   15.7488   -3.9485   15.0844 H   0  0  0  0  0  0  0  0  0  0  0  0
   17.9722   -3.7368   15.9857 H   0  0  0  0  0  0  0  0  0  0  0  0
   17.6983   -2.6161   20.9779 H   0  0  0  0  0  0  0  0  0  0  0  0
   18.0998   -4.2520   21.4744 H   0  0  0  0  0  0  0  0  0  0  0  0
   14.9628   -2.7397   21.7872 H   0  0  0  0  0  0  0  0  0  0  0  0
   12.9497   -4.2536   20.7317 H   0  0  0  0  0  0  0  0  0  0  0  0
   16.3714   -5.7244   19.1565 H   0  0  0  0  0  0  0  0  0  0  0  0
   19.9548   -2.3191   16.3894 H   0  0  0  0  0  0  0  0  0  0  0  0
   21.4198   -5.6212   18.0196 H   0  0  0  0  0  0  0  0  0  0  0  0
   21.2300   -1.0031   17.8844 H   0  0  0  0  0  0  0  0  0  0  0  0
   21.5110   -2.4153   18.9974 H   0  0  0  0  0  0  0  0  0  0  0  0
   19.8081   -2.1181   19.8994 H   0  0  0  0  0  0  0  0  0  0  0  0
   19.2536   -0.8678   17.9459 H   0  0  0  0  0  0  0  0  0  0  0  0
   17.8333    1.7193   20.9038 H   0  0  0  0  0  0  0  0  0  0  0  0
   19.5197    2.1419   20.4817 H   0  0  0  0  0  0  0  0  0  0  0  0
   19.1771    0.6957   21.4513 H   0  0  0  0  0  0  0  0  0  0  0  0
   16.4308   -1.1099   19.0906 H   0  0  0  0  0  0  0  0  0  0  0  0
   14.2191   -1.4000   18.2118 H   0  0  0  0  0  0  0  0  0  0  0  0
  1  2  1  0
  2  3  1  0
  3  4  1  0
  4  5  2  0
  5  6  1  0
  6  7  2  0
  7  8  1  0
  8  9  1  0
  9 10  2  0
  9 11  1  0
 11 12  1  0
 12 13  2  0
 13 14  1  0
 14 15  2  0
 15 16  1  0
  8 17  1  0
 17 18  1  0
 18 19  2  0
 18 20  1  0
 17 21  1  0
 21 22  1  0
 22 23  1  0
 23 24  1  0
 24 25  1  0
 24 26  2  0
  7 27  1  0
 27 28  2  0
 28  4  1  0
 23  8  1  0
 16 12  1  0
  1 29  1  0
  1 30  1  0
  1 31  1  0
  2 32  1  0
  2 33  1  0
  3 34  1  0
  3 35  1  0
  5 36  1  0
  6 37  1  0
 11 38  1  0
 11 39  1  0
 13 40  1  0
 14 41  1  0
 16 42  1  0
 17 43  1  0
 20 44  1  0
 21 45  1  0
 21 46  1  0
 22 47  1  0
 22 48  1  0
 25 49  1  0
 25 50  1  0
 25 51  1  0
 27 52  1  0
 28 53  1  0
M  END
>  <Energy>  (639) 
840.67472907591139

>  <compound_id>  (639) 
3623

>  <target_id>  (639) 
1

>  <reference_id>  (639) 
124

>  <inspiration_ids>  (639) 
[124, 27]

>  <energy_score>  (639) 
734.3614342097577

>  <distance_score>  (639) 
4.004515192890745

>  <path>  (639) 
/opt/xchem-fragalysis-2/maxwin/BulkDock/SCRATCH/505734/C3623-P124/C3623-P124.minimised.mol

>  <scratch_subdir>  (639) 
/opt/xchem-fragalysis-2/maxwin/BulkDock/SCRATCH/505734/C3623-P124

>  <fragmenstein_runtime>  (639) 
23.388513803482056

>  <fragmenstein_outcome>  (639) 
too moved

>  <fragmenstein_mode>  (639) 
expansion

>  <fragmenstein_error>  (639) 


$$$$
C3623-P27
     RDKit          3D

 53 55  0  0  0  0  0  0  0  0999 V2000
   10.7454    2.6613   15.4306 C   0  0  0  0  0  0  0  0  0  0  0  0
   11.0030    2.1806   14.0082 C   0  0  0  0  0  0  0  0  0  0  0  0
   10.9423    0.6535   13.8561 C   0  0  0  0  0  0  0  0  0  0  0  0
   12.1696   -0.0134   14.4228 C   0  0  0  0  0  0  0  0  0  0  0  0
   13.3322   -0.1109   13.6490 C   0  0  0  0  0  0  0  0  0  0  0  0
   14.5319   -0.5181   14.2239 C   0  0  0  0  0  0  0  0  0  0  0  0
   14.5672   -0.8157   15.5938 C   0  0  0  0  0  0  0  0  0  0  0  0
   16.1220   -1.0484   16.3935 C   0  0  0  0  0  0  0  0  0  0  0  0
   15.6483   -2.6001   17.1799 C   0  0  0  0  0  0  0  0  0  0  0  0
   15.3973   -3.6097   16.5207 O   0  0  0  0  0  0  0  0  0  0  0  0
   15.5677   -2.5560   18.7093 C   0  0  0  0  0  0  0  0  0  0  0  0
   15.3406   -3.8843   19.3346 C   0  0  0  0  0  0  0  0  0  0  0  0
   14.5590   -4.2507   20.4088 C   0  0  0  0  0  0  0  0  0  0  0  0
   14.8495   -5.6086   20.6114 C   0  0  0  0  0  0  0  0  0  0  0  0
   15.7139   -6.0840   19.7128 N   0  0  0  0  0  0  0  0  0  0  0  0
   15.9882   -5.0237   18.9376 N   0  0  0  0  0  0  0  0  0  0  0  0
   17.3387   -1.4439   15.3826 C   0  0  0  0  0  0  0  0  0  0  0  0
   17.3577   -2.8326   14.8358 C   0  0  0  0  0  0  0  0  0  0  0  0
   18.0644   -3.7513   15.2086 O   0  0  0  0  0  0  0  0  0  0  0  0
   16.5008   -2.9329   13.8066 O   0  0  0  0  0  0  0  0  0  0  0  0
   17.9859   -1.2135   16.6393 C   0  0  0  0  0  0  0  0  0  0  0  0
   16.4665   -0.4407   16.7513 C   0  0  0  0  0  0  0  0  0  0  0  0
   16.3475    0.0610   17.9746 N   0  0  0  0  0  0  0  0  0  0  0  0
   16.4422    1.6501   18.2731 C   0  0  0  0  0  0  0  0  0  0  0  0
   16.4219    1.6925   19.7838 C   0  0  0  0  0  0  0  0  0  0  0  0
   16.5028    2.5701   17.5825 O   0  0  0  0  0  0  0  0  0  0  0  0
   13.3953   -0.7876   16.3632 C   0  0  0  0  0  0  0  0  0  0  0  0
   12.1979   -0.4155   15.7618 C   0  0  0  0  0  0  0  0  0  0  0  0
    9.8031    2.2613   15.8183 H   0  0  0  0  0  0  0  0  0  0  0  0
   10.6817    3.7541   15.4504 H   0  0  0  0  0  0  0  0  0  0  0  0
   11.5523    2.3673   16.1077 H   0  0  0  0  0  0  0  0  0  0  0  0
   11.9701    2.5673   13.6649 H   0  0  0  0  0  0  0  0  0  0  0  0
   10.2454    2.6295   13.3592 H   0  0  0  0  0  0  0  0  0  0  0  0
   10.8737    0.4128   12.7905 H   0  0  0  0  0  0  0  0  0  0  0  0
   10.0362    0.2509   14.3241 H   0  0  0  0  0  0  0  0  0  0  0  0
   13.3211    0.1896   12.6040 H   0  0  0  0  0  0  0  0  0  0  0  0
   15.4246   -0.5301   13.6073 H   0  0  0  0  0  0  0  0  0  0  0  0
   16.5172   -2.1793   19.1025 H   0  0  0  0  0  0  0  0  0  0  0  0
   14.7646   -1.8729   18.9999 H   0  0  0  0  0  0  0  0  0  0  0  0
   13.8958   -3.6202   20.9881 H   0  0  0  0  0  0  0  0  0  0  0  0
   14.4624   -6.2723   21.3733 H   0  0  0  0  0  0  0  0  0  0  0  0
   16.6150   -5.1509   18.1471 H   0  0  0  0  0  0  0  0  0  0  0  0
   17.5757   -0.6959   14.6150 H   0  0  0  0  0  0  0  0  0  0  0  0
   16.4264   -3.8856   13.5502 H   0  0  0  0  0  0  0  0  0  0  0  0
   18.8625   -0.5537   16.6323 H   0  0  0  0  0  0  0  0  0  0  0  0
   18.1194   -2.0496   17.3349 H   0  0  0  0  0  0  0  0  0  0  0  0
   16.1061    0.6190   16.0069 H   0  0  0  0  0  0  0  0  0  0  0  0
   17.2931    0.4503   16.6043 H   0  0  0  0  0  0  0  0  0  0  0  0
   15.4767    1.2864   20.1544 H   0  0  0  0  0  0  0  0  0  0  0  0
   16.5149    2.7297   20.1182 H   0  0  0  0  0  0  0  0  0  0  0  0
   17.2615    1.1190   20.1861 H   0  0  0  0  0  0  0  0  0  0  0  0
   13.4024   -0.9925   17.4265 H   0  0  0  0  0  0  0  0  0  0  0  0
   11.2927   -0.3583   16.3558 H   0  0  0  0  0  0  0  0  0  0  0  0
  1  2  1  0
  2  3  1  0
  3  4  1  0
  4  5  2  0
  5  6  1  0
  6  7  2  0
  7  8  1  0
  8  9  1  0
  9 10  2  0
  9 11  1  0
 11 12  1  0
 12 13  2  0
 13 14  1  0
 14 15  2  0
 15 16  1  0
  8 17  1  0
 17 18  1  0
 18 19  2  0
 18 20  1  0
 17 21  1  0
 21 22  1  0
 22 23  1  0
 23 24  1  0
 24 25  1  0
 24 26  2  0
  7 27  1  0
 27 28  2  0
 28  4  1  0
 23  8  1  0
 16 12  1  0
  1 29  1  0
  1 30  1  0
  1 31  1  0
  2 32  1  0
  2 33  1  0
  3 34  1  0
  3 35  1  0
  5 36  1  0
  6 37  1  0
 11 38  1  0
 11 39  1  0
 13 40  1  0
 14 41  1  0
 16 42  1  0
 17 43  1  0
 20 44  1  0
 21 45  1  0
 21 46  1  0
 22 47  1  0
 22 48  1  0
 25 49  1  0
 25 50  1  0
 25 51  1  0
 27 52  1  0
 28 53  1  0
M  END
>  <Energy>  (640) 
785.86401022261759

>  <compound_id>  (640) 
3623

>  <target_id>  (640) 
1

>  <reference_id>  (640) 
27

>  <inspiration_ids>  (640) 
[124, 27]

>  <energy_score>  (640) 
679.5507153564508

>  <distance_score>  (640) 
2.024855882150162

>  <path>  (640) 
/opt/xchem-fragalysis-2/maxwin/BulkDock/SCRATCH/505734/C3623-P27/C3623-P27.minimised.mol

>  <scratch_subdir>  (640) 
/opt/xchem-fragalysis-2/maxwin/BulkDock/SCRATCH/505734/C3623-P27

>  <fragmenstein_runtime>  (640) 
34.33092713356018

>  <fragmenstein_outcome>  (640) 
too moved

>  <fragmenstein_mode>  (640) 
expansion

>  <fragmenstein_error>  (640) 


$$$$
C3624-P124
     RDKit          3D

 61 65  0  0  0  0  0  0  0  0999 V2000
   13.7781    2.2432   10.9207 C   0  0  0  0  0  0  0  0  0  0  0  0
   14.2854    3.1688   12.0072 C   0  0  0  0  0  0  0  0  0  0  0  0
   14.2237    4.3403   11.9257 O   0  0  0  0  0  0  0  0  0  0  0  0
   14.8453    2.2909   13.1081 N   0  0  0  0  0  0  0  0  0  0  0  0
   15.5712    2.6488   14.3621 C   0  0  0  0  0  0  0  0  0  0  0  0
   15.6672    1.4688   15.3046 C   0  0  0  0  0  0  0  0  0  0  0  0
   16.0642    1.9719   16.6672 C   0  0  0  0  0  0  0  0  0  0  0  0
   17.0718    2.6219   16.9024 O   0  0  0  0  0  0  0  0  0  0  0  0
   15.2308    1.6559   17.6711 O   0  0  0  0  0  0  0  0  0  0  0  0
   14.2873    0.8884   15.1205 C   0  0  0  0  0  0  0  0  0  0  0  0
   14.2024   -0.5756   14.5966 C   0  0  0  0  0  0  0  0  0  0  0  0
   12.8414   -0.8998   13.9404 C   0  0  0  0  0  0  0  0  0  0  0  0
   12.3105   -2.3046   14.0834 C   0  0  0  0  0  0  0  0  0  0  0  0
   12.3230   -2.7749   15.5155 C   0  0  0  0  0  0  0  0  0  0  0  0
   13.6820   -2.6568   16.1964 C   0  0  0  0  0  0  0  0  0  0  0  0
   14.7410   -1.7315   15.5321 C   0  0  0  0  0  0  0  0  0  0  0  0
   15.5020   -2.5824   14.6229 N   0  0  0  0  0  0  0  0  0  0  0  0
   16.8291   -2.0155   14.6138 C   0  0  0  0  0  0  0  0  0  0  0  0
   17.9422   -3.0118   13.6566 S   0  0  0  0  0  0  0  0  0  0  0  0
   18.1320   -2.0652   12.2144 C   0  0  0  0  0  0  0  0  0  0  0  0
   19.3572   -1.6033   11.8881 C   0  0  0  0  0  0  0  0  0  0  0  0
   19.5299   -0.7859   10.6982 C   0  0  0  0  0  0  0  0  0  0  0  0
   18.4807   -0.4142    9.9437 C   0  0  0  0  0  0  0  0  0  0  0  0
   17.1821   -0.8554   10.2951 C   0  0  0  0  0  0  0  0  0  0  0  0
   15.9986   -0.5986    9.7859 N   0  0  0  0  0  0  0  0  0  0  0  0
   15.0874   -1.3738   10.4554 N   0  0  0  0  0  0  0  0  0  0  0  0
   15.7494   -2.1186   11.3107 C   0  0  0  0  0  0  0  0  0  0  0  0
   17.0590   -1.7293   11.3705 N   0  0  0  0  0  0  0  0  0  0  0  0
   17.0426   -1.9095   16.0422 N   0  0  0  0  0  0  0  0  0  0  0  0
   18.1770   -1.0787   16.4222 C   0  0  0  0  0  0  0  0  0  0  0  0
   15.7680   -1.3165   16.5222 N   0  0  0  0  0  0  0  0  0  0  0  0
   13.7871    1.9479   14.1250 C   0  0  0  0  0  0  0  0  0  0  0  0
   13.9597    1.1916   11.1563 H   0  0  0  0  0  0  0  0  0  0  0  0
   14.2901    2.4805    9.9843 H   0  0  0  0  0  0  0  0  0  0  0  0
   12.7011    2.3916   10.8024 H   0  0  0  0  0  0  0  0  0  0  0  0
   15.2199    3.6006   14.7998 H   0  0  0  0  0  0  0  0  0  0  0  0
   16.5851    2.9055   14.0210 H   0  0  0  0  0  0  0  0  0  0  0  0
   16.4459    0.8002   14.9508 H   0  0  0  0  0  0  0  0  0  0  0  0
   15.6771    2.0241   18.4637 H   0  0  0  0  0  0  0  0  0  0  0  0
   13.6946    0.9547   16.0140 H   0  0  0  0  0  0  0  0  0  0  0  0
   14.8668   -0.5176   13.7210 H   0  0  0  0  0  0  0  0  0  0  0  0
   12.9214   -0.6693   12.8726 H   0  0  0  0  0  0  0  0  0  0  0  0
   12.0652   -0.2440   14.3095 H   0  0  0  0  0  0  0  0  0  0  0  0
   12.8708   -2.9545   13.4212 H   0  0  0  0  0  0  0  0  0  0  0  0
   11.2844   -2.3492   13.7202 H   0  0  0  0  0  0  0  0  0  0  0  0
   11.5892   -2.1862   16.0726 H   0  0  0  0  0  0  0  0  0  0  0  0
   11.9634   -3.8058   15.5867 H   0  0  0  0  0  0  0  0  0  0  0  0
   14.0978   -3.6715   16.2958 H   0  0  0  0  0  0  0  0  0  0  0  0
   13.5196   -2.3675   17.2392 H   0  0  0  0  0  0  0  0  0  0  0  0
   15.1067   -2.5766   13.7012 H   0  0  0  0  0  0  0  0  0  0  0  0
   16.8419   -1.0236   14.1563 H   0  0  0  0  0  0  0  0  0  0  0  0
   20.2403   -1.8152   12.4851 H   0  0  0  0  0  0  0  0  0  0  0  0
   20.5362   -0.4598   10.4491 H   0  0  0  0  0  0  0  0  0  0  0  0
   18.6020    0.2183    9.0711 H   0  0  0  0  0  0  0  0  0  0  0  0
   15.3397   -2.9526   11.8533 H   0  0  0  0  0  0  0  0  0  0  0  0
   18.1593   -0.0817   15.9740 H   0  0  0  0  0  0  0  0  0  0  0  0
   18.2138   -0.9602   17.5112 H   0  0  0  0  0  0  0  0  0  0  0  0
   19.1175   -1.5586   16.1305 H   0  0  0  0  0  0  0  0  0  0  0  0
   15.5538   -1.7557   17.4207 H   0  0  0  0  0  0  0  0  0  0  0  0
   12.9347    1.5801   13.5441 H   0  0  0  0  0  0  0  0  0  0  0  0
   13.3590    2.8459   14.6095 H   0  0  0  0  0  0  0  0  0  0  0  0
  1  2  1  0
  2  3  2  0
  2  4  1  0
  4  5  1  0
  5  6  1  0
  6  7  1  0
  7  8  2  0
  7  9  1  0
  6 10  1  0
 10 11  1  0
 11 12  1  0
 12 13  1  0
 13 14  1  0
 14 15  1  0
 15 16  1  0
 16 17  1  0
 17 18  1  0
 18 19  1  0
 19 20  1  0
 20 21  2  0
 21 22  1  0
 22 23  2  0
 23 24  1  0
 24 25  2  0
 25 26  1  0
 26 27  2  0
 27 28  1  0
 18 29  1  0
 29 30  1  0
 29 31  1  0
 10 32  1  0
 32  4  1  0
 16 11  1  0
 28 20  1  0
 31 16  1  0
 28 24  1  0
  1 33  1  0
  1 34  1  0
  1 35  1  0
  5 36  1  0
  5 37  1  0
  6 38  1  0
  9 39  1  0
 10 40  1  0
 11 41  1  0
 12 42  1  0
 12 43  1  0
 13 44  1  0
 13 45  1  0
 14 46  1  0
 14 47  1  0
 15 48  1  0
 15 49  1  0
 17 50  1  0
 18 51  1  0
 21 52  1  0
 22 53  1  0
 23 54  1  0
 27 55  1  0
 30 56  1  0
 30 57  1  0
 30 58  1  0
 31 59  1  0
 32 60  1  0
 32 61  1  0
M  END
>  <Energy>  (641) 
65.287334028581668

>  <compound_id>  (641) 
3624

>  <target_id>  (641) 
1

>  <reference_id>  (641) 
124

>  <inspiration_ids>  (641) 
[124, 29]

>  <energy_score>  (641) 
-22.989893093591178

>  <distance_score>  (641) 
3.900815598698469

>  <path>  (641) 
/opt/xchem-fragalysis-2/maxwin/BulkDock/SCRATCH/505734/C3624-P124/C3624-P124.minimised.mol

>  <scratch_subdir>  (641) 
/opt/xchem-fragalysis-2/maxwin/BulkDock/SCRATCH/505734/C3624-P124

>  <fragmenstein_runtime>  (641) 
11.414535284042358

>  <fragmenstein_outcome>  (641) 
too moved

>  <fragmenstein_mode>  (641) 
expansion

>  <fragmenstein_error>  (641) 


$$$$
C3624-P29
     RDKit          3D

 61 65  0  0  0  0  0  0  0  0999 V2000
   13.7894    2.2355   10.9590 C   0  0  0  0  0  0  0  0  0  0  0  0
   14.2835    3.1741   12.0377 C   0  0  0  0  0  0  0  0  0  0  0  0
   14.2187    4.3448   11.9481 O   0  0  0  0  0  0  0  0  0  0  0  0
   14.8313    2.3051   13.1513 N   0  0  0  0  0  0  0  0  0  0  0  0
   15.5383    2.6731   14.4120 C   0  0  0  0  0  0  0  0  0  0  0  0
   15.6169    1.5134   15.3841 C   0  0  0  0  0  0  0  0  0  0  0  0
   15.9493    2.0683   16.7459 C   0  0  0  0  0  0  0  0  0  0  0  0
   16.8640    2.8441   16.9823 O   0  0  0  0  0  0  0  0  0  0  0  0
   15.1691    1.6492   17.7553 O   0  0  0  0  0  0  0  0  0  0  0  0
   14.2467    0.9124   15.1630 C   0  0  0  0  0  0  0  0  0  0  0  0
   14.1752   -0.5565   14.6318 C   0  0  0  0  0  0  0  0  0  0  0  0
   12.8268   -0.8939   13.9406 C   0  0  0  0  0  0  0  0  0  0  0  0
   12.3923   -2.3415   14.0268 C   0  0  0  0  0  0  0  0  0  0  0  0
   12.2572   -2.7347   15.4793 C   0  0  0  0  0  0  0  0  0  0  0  0
   13.5581   -2.5702   16.2599 C   0  0  0  0  0  0  0  0  0  0  0  0
   14.6749   -1.6915   15.6182 C   0  0  0  0  0  0  0  0  0  0  0  0
   15.5337   -2.5292   14.7810 N   0  0  0  0  0  0  0  0  0  0  0  0
   16.8199   -1.8628   14.8152 C   0  0  0  0  0  0  0  0  0  0  0  0
   18.0806   -2.7915   13.9762 S   0  0  0  0  0  0  0  0  0  0  0  0
   18.1440   -2.0303   12.4206 C   0  0  0  0  0  0  0  0  0  0  0  0
   19.3120   -1.5024   11.9971 C   0  0  0  0  0  0  0  0  0  0  0  0
   19.3951   -0.8786   10.6868 C   0  0  0  0  0  0  0  0  0  0  0  0
   18.3197   -0.7886    9.8854 C   0  0  0  0  0  0  0  0  0  0  0  0
   17.0838   -1.3267   10.3198 C   0  0  0  0  0  0  0  0  0  0  0  0
   15.9031   -1.3647    9.7516 N   0  0  0  0  0  0  0  0  0  0  0  0
   15.0659   -2.0723   10.5781 N   0  0  0  0  0  0  0  0  0  0  0  0
   15.7603   -2.4472   11.6261 C   0  0  0  0  0  0  0  0  0  0  0  0
   17.0374   -1.9603   11.5573 N   0  0  0  0  0  0  0  0  0  0  0  0
   16.9811   -1.5076   16.2210 N   0  0  0  0  0  0  0  0  0  0  0  0
   17.5785   -2.5434   17.0697 C   0  0  0  0  0  0  0  0  0  0  0  0
   15.5945   -1.2329   16.6757 N   0  0  0  0  0  0  0  0  0  0  0  0
   13.7602    1.9643   14.1560 C   0  0  0  0  0  0  0  0  0  0  0  0
   14.1762    1.2225   11.1010 H   0  0  0  0  0  0  0  0  0  0  0  0
   14.1328    2.5975    9.9861 H   0  0  0  0  0  0  0  0  0  0  0  0
   12.6967    2.2077   10.9787 H   0  0  0  0  0  0  0  0  0  0  0  0
   15.1842    3.6350   14.8245 H   0  0  0  0  0  0  0  0  0  0  0  0
   16.5588    2.9191   14.0830 H   0  0  0  0  0  0  0  0  0  0  0  0
   16.4307    0.8578   15.0897 H   0  0  0  0  0  0  0  0  0  0  0  0
   15.5956    2.0480   18.5432 H   0  0  0  0  0  0  0  0  0  0  0  0
   13.6375    0.9729   16.0515 H   0  0  0  0  0  0  0  0  0  0  0  0
   14.8590   -0.5227   13.7716 H   0  0  0  0  0  0  0  0  0  0  0  0
   12.8882   -0.6147   12.8807 H   0  0  0  0  0  0  0  0  0  0  0  0
   12.0206   -0.2923   14.3582 H   0  0  0  0  0  0  0  0  0  0  0  0
   13.0959   -2.9792   13.4879 H   0  0  0  0  0  0  0  0  0  0  0  0
   11.4282   -2.4697   13.5312 H   0  0  0  0  0  0  0  0  0  0  0  0
   11.4851   -2.1081   15.9406 H   0  0  0  0  0  0  0  0  0  0  0  0
   11.8883   -3.7594   15.5732 H   0  0  0  0  0  0  0  0  0  0  0  0
   13.9591   -3.5660   16.4948 H   0  0  0  0  0  0  0  0  0  0  0  0
   13.3064   -2.2025   17.2548 H   0  0  0  0  0  0  0  0  0  0  0  0
   15.7017   -3.4162   15.2451 H   0  0  0  0  0  0  0  0  0  0  0  0
   16.7829   -0.9268   14.2583 H   0  0  0  0  0  0  0  0  0  0  0  0
   20.2164   -1.5263   12.5990 H   0  0  0  0  0  0  0  0  0  0  0  0
   20.3545   -0.4749   10.3759 H   0  0  0  0  0  0  0  0  0  0  0  0
   18.3723   -0.3152    8.9117 H   0  0  0  0  0  0  0  0  0  0  0  0
   15.3892   -3.0723   12.4199 H   0  0  0  0  0  0  0  0  0  0  0  0
   17.5838   -2.2133   18.1156 H   0  0  0  0  0  0  0  0  0  0  0  0
   17.0463   -3.5005   17.0247 H   0  0  0  0  0  0  0  0  0  0  0  0
   18.6279   -2.7105   16.8061 H   0  0  0  0  0  0  0  0  0  0  0  0
   15.3909   -1.7087   17.5561 H   0  0  0  0  0  0  0  0  0  0  0  0
   12.9141    1.5900   13.5695 H   0  0  0  0  0  0  0  0  0  0  0  0
   13.3253    2.8657   14.6281 H   0  0  0  0  0  0  0  0  0  0  0  0
  1  2  1  0
  2  3  2  0
  2  4  1  0
  4  5  1  0
  5  6  1  0
  6  7  1  0
  7  8  2  0
  7  9  1  0
  6 10  1  0
 10 11  1  0
 11 12  1  0
 12 13  1  0
 13 14  1  0
 14 15  1  0
 15 16  1  0
 16 17  1  0
 17 18  1  0
 18 19  1  0
 19 20  1  0
 20 21  2  0
 21 22  1  0
 22 23  2  0
 23 24  1  0
 24 25  2  0
 25 26  1  0
 26 27  2  0
 27 28  1  0
 18 29  1  0
 29 30  1  0
 29 31  1  0
 10 32  1  0
 32  4  1  0
 16 11  1  0
 28 20  1  0
 31 16  1  0
 28 24  1  0
  1 33  1  0
  1 34  1  0
  1 35  1  0
  5 36  1  0
  5 37  1  0
  6 38  1  0
  9 39  1  0
 10 40  1  0
 11 41  1  0
 12 42  1  0
 12 43  1  0
 13 44  1  0
 13 45  1  0
 14 46  1  0
 14 47  1  0
 15 48  1  0
 15 49  1  0
 17 50  1  0
 18 51  1  0
 21 52  1  0
 22 53  1  0
 23 54  1  0
 27 55  1  0
 30 56  1  0
 30 57  1  0
 30 58  1  0
 31 59  1  0
 32 60  1  0
 32 61  1  0
M  END
>  <Energy>  (642) 
60.045569214323876

>  <compound_id>  (642) 
3624

>  <target_id>  (642) 
1

>  <reference_id>  (642) 
29

>  <inspiration_ids>  (642) 
[124, 29]

>  <energy_score>  (642) 
-28.231657907850376

>  <distance_score>  (642) 
3.9109610275016236

>  <path>  (642) 
/opt/xchem-fragalysis-2/maxwin/BulkDock/SCRATCH/505734/C3624-P29/C3624-P29.minimised.mol

>  <scratch_subdir>  (642) 
/opt/xchem-fragalysis-2/maxwin/BulkDock/SCRATCH/505734/C3624-P29

>  <fragmenstein_runtime>  (642) 
9.684901714324951

>  <fragmenstein_outcome>  (642) 
too moved

>  <fragmenstein_mode>  (642) 
expansion

>  <fragmenstein_error>  (642) 


$$$$
C2663-P124
     RDKit          3D

 52 55  0  0  0  0  0  0  0  0999 V2000
   18.2737   -3.9029   19.1747 C   0  0  0  0  0  0  0  0  0  0  0  0
   19.3153   -2.9518   18.6248 C   0  0  0  0  0  0  0  0  0  0  0  0
   20.4755   -3.0997   18.9022 O   0  0  0  0  0  0  0  0  0  0  0  0
   18.6765   -1.9822   17.7972 N   0  0  0  0  0  0  0  0  0  0  0  0
   18.2655   -0.7839   18.6170 C   0  0  0  0  0  0  0  0  0  0  0  0
   17.5615    0.2972   17.8105 C   0  0  0  0  0  0  0  0  0  0  0  0
   16.0499    0.1775   17.8933 C   0  0  0  0  0  0  0  0  0  0  0  0
   15.4219    0.8466   18.7145 O   0  0  0  0  0  0  0  0  0  0  0  0
   15.3330   -0.7631   17.0450 C   0  0  0  0  0  0  0  0  0  0  0  0
   15.0579   -2.0599   17.4452 C   0  0  0  0  0  0  0  0  0  0  0  0
   14.1588   -2.9293   16.2750 S   0  0  0  0  0  0  0  0  0  0  0  0
   14.1413   -1.5951   15.2461 C   0  0  0  0  0  0  0  0  0  0  0  0
   14.7699   -0.4902   15.7542 C   0  0  0  0  0  0  0  0  0  0  0  0
   14.7633    0.7768   14.9392 C   0  0  0  0  0  0  0  0  0  0  0  0
   15.1162    0.6258   13.4643 N   0  0  0  0  0  0  0  0  0  0  0  0
   16.0817   -0.2138   12.8139 C   0  0  0  0  0  0  0  0  0  0  0  0
   16.7935   -1.0767   13.2582 O   0  0  0  0  0  0  0  0  0  0  0  0
   16.1322    0.1484   11.3318 C   0  0  0  0  0  0  0  0  0  0  0  0
   17.7527    0.7406   10.9156 Cl  0  0  0  0  0  0  0  0  0  0  0  0
   13.7120   -0.0439   13.4229 C   0  0  0  0  0  0  0  0  0  0  0  0
   13.5618   -1.5264   13.8926 C   0  0  0  0  0  0  0  0  0  0  0  0
   18.1848    0.0741   16.4624 C   0  0  0  0  0  0  0  0  0  0  0  0
   18.7157    1.2715   15.7017 C   0  0  0  0  0  0  0  0  0  0  0  0
   19.4831    1.0483   14.5447 C   0  0  0  0  0  0  0  0  0  0  0  0
   19.9696    2.1109   13.7807 C   0  0  0  0  0  0  0  0  0  0  0  0
   19.6872    3.4206   14.1505 C   0  0  0  0  0  0  0  0  0  0  0  0
   18.9076    3.6646   15.2765 C   0  0  0  0  0  0  0  0  0  0  0  0
   18.4173    2.6001   16.0400 C   0  0  0  0  0  0  0  0  0  0  0  0
   19.2527   -0.9088   16.9228 C   0  0  0  0  0  0  0  0  0  0  0  0
   17.3880   -3.9395   18.5353 H   0  0  0  0  0  0  0  0  0  0  0  0
   18.6966   -4.9108   19.2182 H   0  0  0  0  0  0  0  0  0  0  0  0
   17.9865   -3.5840   20.1799 H   0  0  0  0  0  0  0  0  0  0  0  0
   19.1269   -0.3926   19.1881 H   0  0  0  0  0  0  0  0  0  0  0  0
   17.5923   -1.1648   19.3986 H   0  0  0  0  0  0  0  0  0  0  0  0
   17.8205    1.2588   18.2664 H   0  0  0  0  0  0  0  0  0  0  0  0
   15.3286   -2.5409   18.3755 H   0  0  0  0  0  0  0  0  0  0  0  0
   13.9190    1.4520   15.1430 H   0  0  0  0  0  0  0  0  0  0  0  0
   15.6205    1.3594   15.3049 H   0  0  0  0  0  0  0  0  0  0  0  0
   15.4128    0.9303   11.0740 H   0  0  0  0  0  0  0  0  0  0  0  0
   15.9125   -0.7436   10.7384 H   0  0  0  0  0  0  0  0  0  0  0  0
   12.8887    0.6091   13.7541 H   0  0  0  0  0  0  0  0  0  0  0  0
   13.5131   -0.0945   12.3411 H   0  0  0  0  0  0  0  0  0  0  0  0
   12.5051   -1.8135   13.8831 H   0  0  0  0  0  0  0  0  0  0  0  0
   14.1053   -2.1838   13.2065 H   0  0  0  0  0  0  0  0  0  0  0  0
   17.5119   -0.4507   15.7796 H   0  0  0  0  0  0  0  0  0  0  0  0
   19.6894    0.0341   14.2040 H   0  0  0  0  0  0  0  0  0  0  0  0
   20.5541    1.9100   12.8862 H   0  0  0  0  0  0  0  0  0  0  0  0
   20.0609    4.2474   13.5529 H   0  0  0  0  0  0  0  0  0  0  0  0
   18.6710    4.6878   15.5575 H   0  0  0  0  0  0  0  0  0  0  0  0
   17.7900    2.8497   16.8906 H   0  0  0  0  0  0  0  0  0  0  0  0
   19.6435   -1.4567   16.0539 H   0  0  0  0  0  0  0  0  0  0  0  0
   20.1580   -0.4539   17.3630 H   0  0  0  0  0  0  0  0  0  0  0  0
  1  2  1  0
  2  3  2  0
  2  4  1  0
  4  5  1  0
  5  6  1  0
  6  7  1  0
  7  8  2  0
  7  9  1  0
  9 10  2  0
 10 11  1  0
 11 12  1  0
 12 13  2  0
 13 14  1  0
 14 15  1  0
 15 16  1  0
 16 17  2  0
 16 18  1  0
 18 19  1  0
 15 20  1  0
 20 21  1  0
  6 22  1  0
 22 23  1  0
 23 24  2  0
 24 25  1  0
 25 26  2  0
 26 27  1  0
 27 28  2  0
 22 29  1  0
 29  4  1  0
 13  9  1  0
 28 23  1  0
 21 12  1  0
  1 30  1  0
  1 31  1  0
  1 32  1  0
  5 33  1  0
  5 34  1  0
  6 35  1  0
 10 36  1  0
 14 37  1  0
 14 38  1  0
 18 39  1  0
 18 40  1  0
 20 41  1  0
 20 42  1  0
 21 43  1  0
 21 44  1  0
 22 45  1  0
 24 46  1  0
 25 47  1  0
 26 48  1  0
 27 49  1  0
 28 50  1  0
 29 51  1  0
 29 52  1  0
M  END
>  <Energy>  (643) 
191.06956923681048

>  <compound_id>  (643) 
2663

>  <target_id>  (643) 
1

>  <reference_id>  (643) 
124

>  <inspiration_ids>  (643) 
[124, 36]

>  <energy_score>  (643) 
84.3036605903358

>  <distance_score>  (643) 
4.373270624432309

>  <path>  (643) 
/opt/xchem-fragalysis-2/maxwin/BulkDock/SCRATCH/505734/C2663-P124/C2663-P124.minimised.mol

>  <scratch_subdir>  (643) 
/opt/xchem-fragalysis-2/maxwin/BulkDock/SCRATCH/505734/C2663-P124

>  <fragmenstein_runtime>  (643) 
27.613946437835693

>  <fragmenstein_outcome>  (643) 
too moved

>  <fragmenstein_mode>  (643) 
expansion

>  <fragmenstein_error>  (643) 


$$$$
C2663-P36
     RDKit          3D

 52 55  0  0  0  0  0  0  0  0999 V2000
   19.9424    1.3389   21.1963 C   0  0  0  0  0  0  0  0  0  0  0  0
   19.9123    1.8867   19.7846 C   0  0  0  0  0  0  0  0  0  0  0  0
   20.5655    2.8545   19.4980 O   0  0  0  0  0  0  0  0  0  0  0  0
   19.0545    1.0785   18.9846 N   0  0  0  0  0  0  0  0  0  0  0  0
   17.6397    1.6064   19.0344 C   0  0  0  0  0  0  0  0  0  0  0  0
   16.6880    0.6270   18.3641 C   0  0  0  0  0  0  0  0  0  0  0  0
   15.2839    1.1875   18.2333 C   0  0  0  0  0  0  0  0  0  0  0  0
   14.9761    2.2137   18.8394 O   0  0  0  0  0  0  0  0  0  0  0  0
   14.2813    0.5049   17.4045 C   0  0  0  0  0  0  0  0  0  0  0  0
   13.3804    1.2427   16.6431 C   0  0  0  0  0  0  0  0  0  0  0  0
   12.4063    0.2741   15.6171 S   0  0  0  0  0  0  0  0  0  0  0  0
   13.1114   -1.1206   16.2346 C   0  0  0  0  0  0  0  0  0  0  0  0
   14.0527   -0.8974   17.2077 C   0  0  0  0  0  0  0  0  0  0  0  0
   14.6625   -2.1165   17.8294 C   0  0  0  0  0  0  0  0  0  0  0  0
   15.2678   -3.0128   16.7889 N   0  0  0  0  0  0  0  0  0  0  0  0
   16.0985   -4.1646   16.9222 C   0  0  0  0  0  0  0  0  0  0  0  0
   16.4512   -4.7643   17.9025 O   0  0  0  0  0  0  0  0  0  0  0  0
   16.6369   -4.5397   15.5440 C   0  0  0  0  0  0  0  0  0  0  0  0
   18.3703   -4.1464   15.4804 Cl  0  0  0  0  0  0  0  0  0  0  0  0
   13.7753   -3.4455   16.6125 C   0  0  0  0  0  0  0  0  0  0  0  0
   12.8671   -2.4987   15.7635 C   0  0  0  0  0  0  0  0  0  0  0  0
   17.5055    0.3455   17.1301 C   0  0  0  0  0  0  0  0  0  0  0  0
   16.9817    0.7593   15.7740 C   0  0  0  0  0  0  0  0  0  0  0  0
   16.7647   -0.2243   14.7961 C   0  0  0  0  0  0  0  0  0  0  0  0
   16.2593    0.1120   13.5394 C   0  0  0  0  0  0  0  0  0  0  0  0
   15.9690    1.4392   13.2379 C   0  0  0  0  0  0  0  0  0  0  0  0
   16.1867    2.4299   14.1916 C   0  0  0  0  0  0  0  0  0  0  0  0
   16.6899    2.0945   15.4506 C   0  0  0  0  0  0  0  0  0  0  0  0
   18.7770    1.1056   17.5148 C   0  0  0  0  0  0  0  0  0  0  0  0
   20.9828    1.1824   21.4948 H   0  0  0  0  0  0  0  0  0  0  0  0
   19.4696    2.0600   21.8686 H   0  0  0  0  0  0  0  0  0  0  0  0
   19.4164    0.3831   21.2765 H   0  0  0  0  0  0  0  0  0  0  0  0
   17.5694    2.6543   18.6903 H   0  0  0  0  0  0  0  0  0  0  0  0
   17.3730    1.6701   20.1002 H   0  0  0  0  0  0  0  0  0  0  0  0
   16.6454   -0.2541   19.0123 H   0  0  0  0  0  0  0  0  0  0  0  0
   13.2893    2.3211   16.6021 H   0  0  0  0  0  0  0  0  0  0  0  0
   14.0912   -2.5831   18.6469 H   0  0  0  0  0  0  0  0  0  0  0  0
   15.5511   -1.8016   18.3805 H   0  0  0  0  0  0  0  0  0  0  0  0
   16.1453   -3.9728   14.7517 H   0  0  0  0  0  0  0  0  0  0  0  0
   16.5087   -5.6091   15.3713 H   0  0  0  0  0  0  0  0  0  0  0  0
   13.8360   -4.3703   16.0234 H   0  0  0  0  0  0  0  0  0  0  0  0
   13.2864   -3.8387   17.5217 H   0  0  0  0  0  0  0  0  0  0  0  0
   11.8181   -2.7936   15.8683 H   0  0  0  0  0  0  0  0  0  0  0  0
   13.1418   -2.5659   14.7065 H   0  0  0  0  0  0  0  0  0  0  0  0
   17.7377   -0.7285   17.1157 H   0  0  0  0  0  0  0  0  0  0  0  0
   16.9835   -1.2692   15.0049 H   0  0  0  0  0  0  0  0  0  0  0  0
   16.0930   -0.6637   12.7962 H   0  0  0  0  0  0  0  0  0  0  0  0
   15.5754    1.7015   12.2595 H   0  0  0  0  0  0  0  0  0  0  0  0
   15.9623    3.4673   13.9560 H   0  0  0  0  0  0  0  0  0  0  0  0
   16.8389    2.8957   16.1719 H   0  0  0  0  0  0  0  0  0  0  0  0
   19.6386    0.5986   17.0568 H   0  0  0  0  0  0  0  0  0  0  0  0
   18.8642    2.1352   17.1288 H   0  0  0  0  0  0  0  0  0  0  0  0
  1  2  1  0
  2  3  2  0
  2  4  1  0
  4  5  1  0
  5  6  1  0
  6  7  1  0
  7  8  2  0
  7  9  1  0
  9 10  2  0
 10 11  1  0
 11 12  1  0
 12 13  2  0
 13 14  1  0
 14 15  1  0
 15 16  1  0
 16 17  2  0
 16 18  1  0
 18 19  1  0
 15 20  1  0
 20 21  1  0
  6 22  1  0
 22 23  1  0
 23 24  2  0
 24 25  1  0
 25 26  2  0
 26 27  1  0
 27 28  2  0
 22 29  1  0
 29  4  1  0
 13  9  1  0
 28 23  1  0
 21 12  1  0
  1 30  1  0
  1 31  1  0
  1 32  1  0
  5 33  1  0
  5 34  1  0
  6 35  1  0
 10 36  1  0
 14 37  1  0
 14 38  1  0
 18 39  1  0
 18 40  1  0
 20 41  1  0
 20 42  1  0
 21 43  1  0
 21 44  1  0
 22 45  1  0
 24 46  1  0
 25 47  1  0
 26 48  1  0
 27 49  1  0
 28 50  1  0
 29 51  1  0
 29 52  1  0
M  END
>  <Energy>  (644) 
186.2386970122499

>  <compound_id>  (644) 
2663

>  <target_id>  (644) 
1

>  <reference_id>  (644) 
36

>  <inspiration_ids>  (644) 
[124, 36]

>  <energy_score>  (644) 
79.4727883657736

>  <distance_score>  (644) 
4.075102956258501

>  <path>  (644) 
/opt/xchem-fragalysis-2/maxwin/BulkDock/SCRATCH/505734/C2663-P36/C2663-P36.minimised.mol

>  <scratch_subdir>  (644) 
/opt/xchem-fragalysis-2/maxwin/BulkDock/SCRATCH/505734/C2663-P36

>  <fragmenstein_runtime>  (644) 
25.43730354309082

>  <fragmenstein_outcome>  (644) 
too moved

>  <fragmenstein_mode>  (644) 
expansion

>  <fragmenstein_error>  (644) 


$$$$
C3626-P124
     RDKit          3D

 45 47  0  0  0  0  0  0  0  0999 V2000
   15.3133    2.7288   14.6134 C   0  0  0  0  0  0  0  0  0  0  0  0
   13.7783    1.9395   14.9757 S   0  0  0  0  0  0  0  0  0  0  0  0
   13.0543    2.8846   15.7981 O   0  0  0  0  0  0  0  0  0  0  0  0
   14.0761    0.5945   15.4537 O   0  0  0  0  0  0  0  0  0  0  0  0
   12.8833    1.7375   13.3460 C   0  0  0  0  0  0  0  0  0  0  0  0
   13.6203    2.2816   12.3031 C   0  0  0  0  0  0  0  0  0  0  0  0
   14.5621    1.4444   11.7144 C   0  0  0  0  0  0  0  0  0  0  0  0
   14.6181    0.0963   12.0911 C   0  0  0  0  0  0  0  0  0  0  0  0
   15.8518   -0.5761   12.0369 N   0  0  0  0  0  0  0  0  0  0  0  0
   15.8627   -1.9621   11.5219 C   0  0  0  0  0  0  0  0  0  0  0  0
   17.1644   -2.6714   11.9733 C   0  0  0  0  0  0  0  0  0  0  0  0
   17.2320   -2.9004   13.4377 N   0  0  0  0  0  0  0  0  0  0  0  0
   16.8213   -1.7116   14.1799 C   0  0  0  0  0  0  0  0  0  0  0  0
   15.5314   -1.9485   14.8332 N   0  0  0  0  0  0  0  0  0  0  0  0
   15.4034   -2.6332   15.9850 N   0  0  0  0  0  0  0  0  0  0  0  0
   15.6110   -2.0243   17.1177 C   0  0  0  0  0  0  0  0  0  0  0  0
   16.2685   -0.6611   17.3203 C   0  0  0  0  0  0  0  0  0  0  0  0
   15.7569    0.0205   18.5560 C   0  0  0  0  0  0  0  0  0  0  0  0
   15.9634    2.0650   18.6968 I   0  0  0  0  0  0  0  0  0  0  0  0
   15.1927   -0.6712   19.5518 C   0  0  0  0  0  0  0  0  0  0  0  0
   15.0889   -2.1249   19.3451 C   0  0  0  0  0  0  0  0  0  0  0  0
   15.2718   -2.7522   18.2334 N   0  0  0  0  0  0  0  0  0  0  0  0
   16.7123   -0.4381   13.2793 C   0  0  0  0  0  0  0  0  0  0  0  0
   13.4890   -0.4402   12.7080 C   0  0  0  0  0  0  0  0  0  0  0  0
   12.5187    0.4030   13.2260 C   0  0  0  0  0  0  0  0  0  0  0  0
   15.9247    2.7127   15.5162 H   0  0  0  0  0  0  0  0  0  0  0  0
   15.8705    2.2628   13.8131 H   0  0  0  0  0  0  0  0  0  0  0  0
   15.1129    3.7715   14.3522 H   0  0  0  0  0  0  0  0  0  0  0  0
   13.7182    3.3580   12.1881 H   0  0  0  0  0  0  0  0  0  0  0  0
   15.3642    1.8674   11.1133 H   0  0  0  0  0  0  0  0  0  0  0  0
   14.9994   -2.5496   11.8514 H   0  0  0  0  0  0  0  0  0  0  0  0
   15.8378   -1.9147   10.4299 H   0  0  0  0  0  0  0  0  0  0  0  0
   18.0371   -2.0766   11.6723 H   0  0  0  0  0  0  0  0  0  0  0  0
   17.2807   -3.6132   11.4336 H   0  0  0  0  0  0  0  0  0  0  0  0
   16.5437   -3.6210   13.6849 H   0  0  0  0  0  0  0  0  0  0  0  0
   17.5803   -1.5051   14.9423 H   0  0  0  0  0  0  0  0  0  0  0  0
   14.9936   -1.0710   14.8715 H   0  0  0  0  0  0  0  0  0  0  0  0
   17.3467   -0.8349   17.4273 H   0  0  0  0  0  0  0  0  0  0  0  0
   16.1398   -0.0296   16.4435 H   0  0  0  0  0  0  0  0  0  0  0  0
   14.8208   -0.2542   20.4786 H   0  0  0  0  0  0  0  0  0  0  0  0
   14.8064   -2.7041   20.2410 H   0  0  0  0  0  0  0  0  0  0  0  0
   17.7176   -0.1563   12.9385 H   0  0  0  0  0  0  0  0  0  0  0  0
   16.3799    0.3882   13.9017 H   0  0  0  0  0  0  0  0  0  0  0  0
   13.4221   -1.5016   12.9347 H   0  0  0  0  0  0  0  0  0  0  0  0
   11.7579   -0.0506   13.8517 H   0  0  0  0  0  0  0  0  0  0  0  0
  1  2  1  0
  2  3  2  0
  2  4  2  0
  2  5  1  0
  5  6  2  0
  6  7  1  0
  7  8  2  0
  8  9  1  0
  9 10  1  0
 10 11  1  0
 11 12  1  0
 12 13  1  0
 13 14  1  0
 14 15  1  0
 15 16  2  3
 16 17  1  0
 17 18  1  0
 18 19  1  0
 18 20  2  0
 20 21  1  0
 21 22  2  0
 13 23  1  0
  8 24  1  0
 24 25  2  0
 25  5  1  0
 23  9  1  0
 22 16  1  0
  1 26  1  0
  1 27  1  0
  1 28  1  0
  6 29  1  0
  7 30  1  0
 10 31  1  0
 10 32  1  0
 11 33  1  0
 11 34  1  0
 12 35  1  0
 13 36  1  0
 14 37  1  0
 17 38  1  0
 17 39  1  0
 20 40  1  0
 21 41  1  0
 23 42  1  0
 23 43  1  0
 24 44  1  0
 25 45  1  0
M  END
>  <Energy>  (645) 
231.18584596025551

>  <compound_id>  (645) 
3626

>  <target_id>  (645) 
1

>  <reference_id>  (645) 
124

>  <inspiration_ids>  (645) 
[124, 50]

>  <energy_score>  (645) 
21.611836531558964

>  <distance_score>  (645) 
2.5200378184292416

>  <path>  (645) 
/opt/xchem-fragalysis-2/maxwin/BulkDock/SCRATCH/505734/C3626-P124/C3626-P124.minimised.mol

>  <scratch_subdir>  (645) 
/opt/xchem-fragalysis-2/maxwin/BulkDock/SCRATCH/505734/C3626-P124

>  <fragmenstein_runtime>  (645) 
30.712818145751953

>  <fragmenstein_outcome>  (645) 
too moved

>  <fragmenstein_mode>  (645) 
expansion

>  <fragmenstein_error>  (645) 


$$$$
C3626-P50
     RDKit          3D

 45 47  0  0  0  0  0  0  0  0999 V2000
   13.1775    1.4932   16.5479 C   0  0  0  0  0  0  0  0  0  0  0  0
   11.8380    1.2556   15.4073 S   0  0  0  0  0  0  0  0  0  0  0  0
   11.2842    2.5482   15.0891 O   0  0  0  0  0  0  0  0  0  0  0  0
   11.0114    0.1468   15.8465 O   0  0  0  0  0  0  0  0  0  0  0  0
   12.7596    0.7127   14.0355 C   0  0  0  0  0  0  0  0  0  0  0  0
   13.3322    1.6331   13.1533 C   0  0  0  0  0  0  0  0  0  0  0  0
   14.5528    1.3057   12.5718 C   0  0  0  0  0  0  0  0  0  0  0  0
   15.1737    0.0994   12.9168 C   0  0  0  0  0  0  0  0  0  0  0  0
   16.5249   -0.1624   12.5779 N   0  0  0  0  0  0  0  0  0  0  0  0
   16.6825   -1.3207   11.6618 C   0  0  0  0  0  0  0  0  0  0  0  0
   17.8819   -2.2231   12.0075 C   0  0  0  0  0  0  0  0  0  0  0  0
   17.8290   -2.7239   13.3898 N   0  0  0  0  0  0  0  0  0  0  0  0
   17.9279   -1.5927   14.2932 C   0  0  0  0  0  0  0  0  0  0  0  0
   17.5096   -2.0230   15.6255 N   0  0  0  0  0  0  0  0  0  0  0  0
   16.2261   -2.3234   15.9373 N   0  0  0  0  0  0  0  0  0  0  0  0
   15.7647   -1.6553   16.9542 C   0  0  0  0  0  0  0  0  0  0  0  0
   16.3610   -0.3459   17.4562 C   0  0  0  0  0  0  0  0  0  0  0  0
   15.7467    0.1479   18.7237 C   0  0  0  0  0  0  0  0  0  0  0  0
   16.1529    2.0966   19.2479 I   0  0  0  0  0  0  0  0  0  0  0  0
   14.9258   -0.6083   19.4565 C   0  0  0  0  0  0  0  0  0  0  0  0
   14.4928   -1.8709   18.8330 C   0  0  0  0  0  0  0  0  0  0  0  0
   14.7448   -2.2662   17.6333 N   0  0  0  0  0  0  0  0  0  0  0  0
   17.3902   -0.2086   13.8106 C   0  0  0  0  0  0  0  0  0  0  0  0
   14.4832   -0.8229   13.7090 C   0  0  0  0  0  0  0  0  0  0  0  0
   13.2461   -0.5600   14.2244 C   0  0  0  0  0  0  0  0  0  0  0  0
   13.5816    0.5210   16.8234 H   0  0  0  0  0  0  0  0  0  0  0  0
   12.7775    1.9881   17.4352 H   0  0  0  0  0  0  0  0  0  0  0  0
   13.9401    2.1320   16.0986 H   0  0  0  0  0  0  0  0  0  0  0  0
   12.9323    2.6376   13.0437 H   0  0  0  0  0  0  0  0  0  0  0  0
   15.0827    2.0258   11.9546 H   0  0  0  0  0  0  0  0  0  0  0  0
   15.7963   -1.9617   11.6511 H   0  0  0  0  0  0  0  0  0  0  0  0
   16.8053   -0.9341   10.6435 H   0  0  0  0  0  0  0  0  0  0  0  0
   18.8248   -1.6872   11.8398 H   0  0  0  0  0  0  0  0  0  0  0  0
   17.8906   -3.0795   11.3244 H   0  0  0  0  0  0  0  0  0  0  0  0
   16.9126   -3.1572   13.5562 H   0  0  0  0  0  0  0  0  0  0  0  0
   19.0067   -1.4213   14.4170 H   0  0  0  0  0  0  0  0  0  0  0  0
   18.0493   -2.8875   15.7558 H   0  0  0  0  0  0  0  0  0  0  0  0
   16.2110    0.3928   16.6627 H   0  0  0  0  0  0  0  0  0  0  0  0
   17.4385   -0.4717   17.6121 H   0  0  0  0  0  0  0  0  0  0  0  0
   14.4580   -0.3059   20.3851 H   0  0  0  0  0  0  0  0  0  0  0  0
   13.8258   -2.4920   19.4532 H   0  0  0  0  0  0  0  0  0  0  0  0
   18.2720    0.3910   13.5416 H   0  0  0  0  0  0  0  0  0  0  0  0
   16.9352    0.3540   14.6327 H   0  0  0  0  0  0  0  0  0  0  0  0
   14.9329   -1.7879   13.9336 H   0  0  0  0  0  0  0  0  0  0  0  0
   12.7939   -1.2854   14.8974 H   0  0  0  0  0  0  0  0  0  0  0  0
  1  2  1  0
  2  3  2  0
  2  4  2  0
  2  5  1  0
  5  6  2  0
  6  7  1  0
  7  8  2  0
  8  9  1  0
  9 10  1  0
 10 11  1  0
 11 12  1  0
 12 13  1  0
 13 14  1  0
 14 15  1  0
 15 16  2  3
 16 17  1  0
 17 18  1  0
 18 19  1  0
 18 20  2  0
 20 21  1  0
 21 22  2  0
 13 23  1  0
  8 24  1  0
 24 25  2  0
 25  5  1  0
 23  9  1  0
 22 16  1  0
  1 26  1  0
  1 27  1  0
  1 28  1  0
  6 29  1  0
  7 30  1  0
 10 31  1  0
 10 32  1  0
 11 33  1  0
 11 34  1  0
 12 35  1  0
 13 36  1  0
 14 37  1  0
 17 38  1  0
 17 39  1  0
 20 40  1  0
 21 41  1  0
 23 42  1  0
 23 43  1  0
 24 44  1  0
 25 45  1  0
M  END
>  <Energy>  (646) 
190.31190528427479

>  <compound_id>  (646) 
3626

>  <target_id>  (646) 
1

>  <reference_id>  (646) 
50

>  <inspiration_ids>  (646) 
[124, 50]

>  <energy_score>  (646) 
-19.262104144421244

>  <distance_score>  (646) 
2.7302827900975974

>  <path>  (646) 
/opt/xchem-fragalysis-2/maxwin/BulkDock/SCRATCH/505734/C3626-P50/C3626-P50.minimised.mol

>  <scratch_subdir>  (646) 
/opt/xchem-fragalysis-2/maxwin/BulkDock/SCRATCH/505734/C3626-P50

>  <fragmenstein_runtime>  (646) 
29.236451625823975

>  <fragmenstein_outcome>  (646) 
too moved

>  <fragmenstein_mode>  (646) 
expansion

>  <fragmenstein_error>  (646) 


$$$$
C3628-P124
     RDKit          3D

 63 66  0  0  0  0  0  0  0  0999 V2000
   13.8284    3.5116   20.4731 C   0  0  0  0  0  0  0  0  0  0  0  0
   15.0009    4.2630   19.3741 S   0  0  0  0  0  0  0  0  0  0  0  0
   14.4210    5.4975   18.8806 O   0  0  0  0  0  0  0  0  0  0  0  0
   16.2998    4.2548   20.0201 O   0  0  0  0  0  0  0  0  0  0  0  0
   15.0755    3.1191   18.0217 C   0  0  0  0  0  0  0  0  0  0  0  0
   15.8864    1.9954   18.1213 C   0  0  0  0  0  0  0  0  0  0  0  0
   15.9607    1.0995   17.0473 C   0  0  0  0  0  0  0  0  0  0  0  0
   15.2288    1.2771   15.8614 C   0  0  0  0  0  0  0  0  0  0  0  0
   15.3710    0.3948   14.7935 N   0  0  0  0  0  0  0  0  0  0  0  0
   14.9845    0.8436   13.4324 C   0  0  0  0  0  0  0  0  0  0  0  0
   13.5369    0.4403   13.0663 C   0  0  0  0  0  0  0  0  0  0  0  0
   13.2612   -0.9973   13.2305 N   0  0  0  0  0  0  0  0  0  0  0  0
   13.6461   -1.4029   14.6005 C   0  0  0  0  0  0  0  0  0  0  0  0
   15.1412   -1.0741   14.9503 C   0  0  0  0  0  0  0  0  0  0  0  0
   15.5862   -1.8544   16.1284 N   0  0  0  0  0  0  0  0  0  0  0  0
   15.6446   -3.1882   15.8884 N   0  0  0  0  0  0  0  0  0  0  0  0
   16.3649   -3.9451   16.6613 C   0  0  0  0  0  0  0  0  0  0  0  0
   17.0676   -3.5522   17.9874 C   0  0  0  0  0  0  0  0  0  0  0  0
   18.6006   -3.6876   18.0109 N   0  0  0  0  0  0  0  0  0  0  0  0
   19.1452   -2.8628   19.0198 C   0  0  0  0  0  0  0  0  0  0  0  0
   19.3897   -3.0958   20.1709 O   0  0  0  0  0  0  0  0  0  0  0  0
   19.4562   -1.4834   18.5195 C   0  0  0  0  0  0  0  0  0  0  0  0
   19.1847   -0.4280   19.4100 C   0  0  0  0  0  0  0  0  0  0  0  0
   19.3991    0.8967   19.0333 C   0  0  0  0  0  0  0  0  0  0  0  0
   19.8786    1.1825   17.7607 C   0  0  0  0  0  0  0  0  0  0  0  0
   20.1717    0.1428   16.8768 C   0  0  0  0  0  0  0  0  0  0  0  0
   19.9886   -1.2067   17.2462 C   0  0  0  0  0  0  0  0  0  0  0  0
   20.3923   -2.2842   16.2716 C   0  0  0  0  0  0  0  0  0  0  0  0
   21.2581   -1.8244   15.3171 F   0  0  0  0  0  0  0  0  0  0  0  0
   21.0350   -3.3430   16.8360 F   0  0  0  0  0  0  0  0  0  0  0  0
   19.3392   -2.7886   15.5686 F   0  0  0  0  0  0  0  0  0  0  0  0
   18.2524   -5.1667   18.0189 C   0  0  0  0  0  0  0  0  0  0  0  0
   17.8542   -5.7844   16.6609 C   0  0  0  0  0  0  0  0  0  0  0  0
   16.5745   -5.2394   16.2549 N   0  0  0  0  0  0  0  0  0  0  0  0
   14.4390    2.4412   15.7974 C   0  0  0  0  0  0  0  0  0  0  0  0
   14.3608    3.3597   16.8550 C   0  0  0  0  0  0  0  0  0  0  0  0
   12.8716    3.4093   19.9572 H   0  0  0  0  0  0  0  0  0  0  0  0
   14.2053    2.5366   20.7874 H   0  0  0  0  0  0  0  0  0  0  0  0
   13.7135    4.1624   21.3425 H   0  0  0  0  0  0  0  0  0  0  0  0
   16.4872    1.8162   19.0094 H   0  0  0  0  0  0  0  0  0  0  0  0
   16.6668    0.2841   17.1444 H   0  0  0  0  0  0  0  0  0  0  0  0
   15.6676    0.3640   12.7181 H   0  0  0  0  0  0  0  0  0  0  0  0
   15.1395    1.9194   13.2893 H   0  0  0  0  0  0  0  0  0  0  0  0
   13.3497    0.7128   12.0218 H   0  0  0  0  0  0  0  0  0  0  0  0
   12.8196    1.0093   13.6638 H   0  0  0  0  0  0  0  0  0  0  0  0
   13.8382   -1.5250   12.5756 H   0  0  0  0  0  0  0  0  0  0  0  0
   13.4455   -2.4734   14.6911 H   0  0  0  0  0  0  0  0  0  0  0  0
   12.9785   -0.9089   15.3051 H   0  0  0  0  0  0  0  0  0  0  0  0
   15.7363   -1.5068   14.1303 H   0  0  0  0  0  0  0  0  0  0  0  0
   16.5314   -1.5037   16.2840 H   0  0  0  0  0  0  0  0  0  0  0  0
   16.8903   -2.4779   18.1268 H   0  0  0  0  0  0  0  0  0  0  0  0
   16.5483   -3.9632   18.8695 H   0  0  0  0  0  0  0  0  0  0  0  0
   18.8025   -0.6410   20.4078 H   0  0  0  0  0  0  0  0  0  0  0  0
   19.1874    1.7050   19.7305 H   0  0  0  0  0  0  0  0  0  0  0  0
   20.0371    2.2162   17.4594 H   0  0  0  0  0  0  0  0  0  0  0  0
   20.5675    0.3927   15.8918 H   0  0  0  0  0  0  0  0  0  0  0  0
   17.6602   -5.5159   18.8818 H   0  0  0  0  0  0  0  0  0  0  0  0
   19.2313   -5.6163   18.2493 H   0  0  0  0  0  0  0  0  0  0  0  0
   18.6112   -5.5478   15.9045 H   0  0  0  0  0  0  0  0  0  0  0  0
   17.7813   -6.8731   16.7440 H   0  0  0  0  0  0  0  0  0  0  0  0
   16.3599   -5.3452   15.2601 H   0  0  0  0  0  0  0  0  0  0  0  0
   13.8372    2.6625   14.9200 H   0  0  0  0  0  0  0  0  0  0  0  0
   13.7378    4.2448   16.7469 H   0  0  0  0  0  0  0  0  0  0  0  0
  1  2  1  0
  2  3  2  0
  2  4  2  0
  2  5  1  0
  5  6  2  0
  6  7  1  0
  7  8  2  0
  8  9  1  0
  9 10  1  0
 10 11  1  0
 11 12  1  0
 12 13  1  0
 13 14  1  0
 14 15  1  0
 15 16  1  0
 16 17  2  3
 17 18  1  0
 18 19  1  0
 19 20  1  0
 20 21  2  0
 20 22  1  0
 22 23  2  0
 23 24  1  0
 24 25  2  0
 25 26  1  0
 26 27  2  0
 27 28  1  0
 28 29  1  0
 28 30  1  0
 28 31  1  0
 19 32  1  0
 32 33  1  0
 33 34  1  0
  8 35  1  0
 35 36  2  0
 36  5  1  0
 14  9  1  0
 34 17  1  0
 27 22  1  0
  1 37  1  0
  1 38  1  0
  1 39  1  0
  6 40  1  0
  7 41  1  0
 10 42  1  0
 10 43  1  0
 11 44  1  0
 11 45  1  0
 12 46  1  0
 13 47  1  0
 13 48  1  0
 14 49  1  0
 15 50  1  0
 18 51  1  0
 18 52  1  0
 23 53  1  0
 24 54  1  0
 25 55  1  0
 26 56  1  0
 32 57  1  0
 32 58  1  0
 33 59  1  0
 33 60  1  0
 34 61  1  0
 35 62  1  0
 36 63  1  0
M  END
>  <Energy>  (647) 
286.32540469327159

>  <compound_id>  (647) 
3628

>  <target_id>  (647) 
1

>  <reference_id>  (647) 
124

>  <inspiration_ids>  (647) 
[124, 60]

>  <energy_score>  (647) 
4.104288545858196

>  <distance_score>  (647) 
3.55096189257776

>  <path>  (647) 
/opt/xchem-fragalysis-2/maxwin/BulkDock/SCRATCH/505734/C3628-P124/C3628-P124.minimised.mol

>  <scratch_subdir>  (647) 
/opt/xchem-fragalysis-2/maxwin/BulkDock/SCRATCH/505734/C3628-P124

>  <fragmenstein_runtime>  (647) 
28.058881044387817

>  <fragmenstein_outcome>  (647) 
too moved

>  <fragmenstein_mode>  (647) 
expansion

>  <fragmenstein_error>  (647) 


$$$$
C3628-P60
     RDKit          3D

 63 66  0  0  0  0  0  0  0  0999 V2000
   13.8372    3.5808   21.5378 C   0  0  0  0  0  0  0  0  0  0  0  0
   15.3482    2.8952   20.9082 S   0  0  0  0  0  0  0  0  0  0  0  0
   16.1163    3.9602   20.2907 O   0  0  0  0  0  0  0  0  0  0  0  0
   15.9249    2.0813   21.9621 O   0  0  0  0  0  0  0  0  0  0  0  0
   14.8055    1.8185   19.6087 C   0  0  0  0  0  0  0  0  0  0  0  0
   14.9210    0.4402   19.7335 C   0  0  0  0  0  0  0  0  0  0  0  0
   14.3948   -0.3908   18.7338 C   0  0  0  0  0  0  0  0  0  0  0  0
   13.7332    0.1158   17.5996 C   0  0  0  0  0  0  0  0  0  0  0  0
   13.0423   -0.6980   16.6841 N   0  0  0  0  0  0  0  0  0  0  0  0
   13.1232   -0.2875   15.2564 C   0  0  0  0  0  0  0  0  0  0  0  0
   12.0915   -1.0191   14.3666 C   0  0  0  0  0  0  0  0  0  0  0  0
   12.1469   -2.4833   14.4897 N   0  0  0  0  0  0  0  0  0  0  0  0
   11.9281   -2.7982   15.9131 C   0  0  0  0  0  0  0  0  0  0  0  0
   13.0142   -2.1838   16.8713 C   0  0  0  0  0  0  0  0  0  0  0  0
   14.2503   -2.9895   16.7874 N   0  0  0  0  0  0  0  0  0  0  0  0
   14.8937   -2.8908   15.6069 N   0  0  0  0  0  0  0  0  0  0  0  0
   16.1859   -2.7934   15.6669 C   0  0  0  0  0  0  0  0  0  0  0  0
   17.0403   -2.8082   16.9760 C   0  0  0  0  0  0  0  0  0  0  0  0
   18.5597   -2.5371   17.0187 N   0  0  0  0  0  0  0  0  0  0  0  0
   19.0583   -2.4668   18.4282 C   0  0  0  0  0  0  0  0  0  0  0  0
   19.4713   -3.3107   19.1304 O   0  0  0  0  0  0  0  0  0  0  0  0
   19.0262   -1.0620   18.9370 C   0  0  0  0  0  0  0  0  0  0  0  0
   18.5935   -0.8970   20.2636 C   0  0  0  0  0  0  0  0  0  0  0  0
   18.5148    0.3730   20.8292 C   0  0  0  0  0  0  0  0  0  0  0  0
   18.8584    1.4892   20.0751 C   0  0  0  0  0  0  0  0  0  0  0  0
   19.3094    1.3329   18.7644 C   0  0  0  0  0  0  0  0  0  0  0  0
   19.4259    0.0546   18.1801 C   0  0  0  0  0  0  0  0  0  0  0  0
   20.0019   -0.0554   16.7916 C   0  0  0  0  0  0  0  0  0  0  0  0
   19.0570   -0.1353   15.8142 F   0  0  0  0  0  0  0  0  0  0  0  0
   20.7529    1.0402   16.4564 F   0  0  0  0  0  0  0  0  0  0  0  0
   20.8469   -1.1093   16.6128 F   0  0  0  0  0  0  0  0  0  0  0  0
   18.5314   -3.6830   16.0449 C   0  0  0  0  0  0  0  0  0  0  0  0
   18.2319   -3.2732   14.5877 C   0  0  0  0  0  0  0  0  0  0  0  0
   16.8827   -2.7835   14.4953 N   0  0  0  0  0  0  0  0  0  0  0  0
   13.6848    1.5216   17.4964 C   0  0  0  0  0  0  0  0  0  0  0  0
   14.2192    2.3682   18.4752 C   0  0  0  0  0  0  0  0  0  0  0  0
   13.3497    4.1624   20.7538 H   0  0  0  0  0  0  0  0  0  0  0  0
   13.1924    2.7685   21.8789 H   0  0  0  0  0  0  0  0  0  0  0  0
   14.0873    4.2327   22.3778 H   0  0  0  0  0  0  0  0  0  0  0  0
   15.3867   -0.0084   20.6082 H   0  0  0  0  0  0  0  0  0  0  0  0
   14.4907   -1.4604   18.8965 H   0  0  0  0  0  0  0  0  0  0  0  0
   14.1369   -0.4663   14.8777 H   0  0  0  0  0  0  0  0  0  0  0  0
   12.9185    0.7778   15.1206 H   0  0  0  0  0  0  0  0  0  0  0  0
   12.2786   -0.7474   13.3235 H   0  0  0  0  0  0  0  0  0  0  0  0
   11.0793   -0.6684   14.6046 H   0  0  0  0  0  0  0  0  0  0  0  0
   13.1235   -2.7434   14.3122 H   0  0  0  0  0  0  0  0  0  0  0  0
   11.8770   -3.8854   16.0402 H   0  0  0  0  0  0  0  0  0  0  0  0
   10.9479   -2.4039   16.1905 H   0  0  0  0  0  0  0  0  0  0  0  0
   12.6372   -2.3921   17.8708 H   0  0  0  0  0  0  0  0  0  0  0  0
   13.9596   -3.9656   16.9144 H   0  0  0  0  0  0  0  0  0  0  0  0
   16.7797   -3.6735   17.6104 H   0  0  0  0  0  0  0  0  0  0  0  0
   16.6400   -1.9592   17.5501 H   0  0  0  0  0  0  0  0  0  0  0  0
   18.3139   -1.7638   20.8598 H   0  0  0  0  0  0  0  0  0  0  0  0
   18.1708    0.4953   21.8544 H   0  0  0  0  0  0  0  0  0  0  0  0
   18.7782    2.4833   20.5117 H   0  0  0  0  0  0  0  0  0  0  0  0
   19.5905    2.2227   18.2010 H   0  0  0  0  0  0  0  0  0  0  0  0
   19.5900   -3.9880   16.0336 H   0  0  0  0  0  0  0  0  0  0  0  0
   18.0578   -4.6230   16.3837 H   0  0  0  0  0  0  0  0  0  0  0  0
   18.9246   -2.4906   14.2600 H   0  0  0  0  0  0  0  0  0  0  0  0
   18.3643   -4.1377   13.9287 H   0  0  0  0  0  0  0  0  0  0  0  0
   16.3414   -3.1137   13.6994 H   0  0  0  0  0  0  0  0  0  0  0  0
   13.1653    2.0062   16.6760 H   0  0  0  0  0  0  0  0  0  0  0  0
   14.1356    3.4456   18.3539 H   0  0  0  0  0  0  0  0  0  0  0  0
  1  2  1  0
  2  3  2  0
  2  4  2  0
  2  5  1  0
  5  6  2  0
  6  7  1  0
  7  8  2  0
  8  9  1  0
  9 10  1  0
 10 11  1  0
 11 12  1  0
 12 13  1  0
 13 14  1  0
 14 15  1  0
 15 16  1  0
 16 17  2  3
 17 18  1  0
 18 19  1  0
 19 20  1  0
 20 21  2  0
 20 22  1  0
 22 23  2  0
 23 24  1  0
 24 25  2  0
 25 26  1  0
 26 27  2  0
 27 28  1  0
 28 29  1  0
 28 30  1  0
 28 31  1  0
 19 32  1  0
 32 33  1  0
 33 34  1  0
  8 35  1  0
 35 36  2  0
 36  5  1  0
 14  9  1  0
 34 17  1  0
 27 22  1  0
  1 37  1  0
  1 38  1  0
  1 39  1  0
  6 40  1  0
  7 41  1  0
 10 42  1  0
 10 43  1  0
 11 44  1  0
 11 45  1  0
 12 46  1  0
 13 47  1  0
 13 48  1  0
 14 49  1  0
 15 50  1  0
 18 51  1  0
 18 52  1  0
 23 53  1  0
 24 54  1  0
 25 55  1  0
 26 56  1  0
 32 57  1  0
 32 58  1  0
 33 59  1  0
 33 60  1  0
 34 61  1  0
 35 62  1  0
 36 63  1  0
M  END
>  <Energy>  (648) 
293.14216819908683

>  <compound_id>  (648) 
3628

>  <target_id>  (648) 
1

>  <reference_id>  (648) 
60

>  <inspiration_ids>  (648) 
[124, 60]

>  <energy_score>  (648) 
-10.280195367732517

>  <distance_score>  (648) 
2.5754142448285524

>  <path>  (648) 
/opt/xchem-fragalysis-2/maxwin/BulkDock/SCRATCH/505734/C3628-P60/C3628-P60.minimised.mol

>  <scratch_subdir>  (648) 
/opt/xchem-fragalysis-2/maxwin/BulkDock/SCRATCH/505734/C3628-P60

>  <fragmenstein_runtime>  (648) 
25.345139980316162

>  <fragmenstein_outcome>  (648) 
too moved

>  <fragmenstein_mode>  (648) 
expansion

>  <fragmenstein_error>  (648) 


$$$$
C1997-P124
     RDKit          3D

 65 68  0  0  0  0  0  0  0  0999 V2000
   14.2342   -4.1085   20.9244 C   0  0  0  0  0  0  0  0  0  0  0  0
   14.8866   -3.9874   19.2890 S   0  0  0  0  0  0  0  0  0  0  0  0
   13.8002   -4.2002   18.3508 O   0  0  0  0  0  0  0  0  0  0  0  0
   16.0446   -4.8487   19.2168 O   0  0  0  0  0  0  0  0  0  0  0  0
   15.4764   -2.3300   19.1210 C   0  0  0  0  0  0  0  0  0  0  0  0
   16.6482   -1.9179   19.7330 C   0  0  0  0  0  0  0  0  0  0  0  0
   17.1780   -0.6650   19.4046 C   0  0  0  0  0  0  0  0  0  0  0  0
   16.5613    0.1767   18.4625 C   0  0  0  0  0  0  0  0  0  0  0  0
   17.2917    1.2485   17.9365 N   0  0  0  0  0  0  0  0  0  0  0  0
   16.5866    2.4665   17.5109 C   0  0  0  0  0  0  0  0  0  0  0  0
   16.0507    2.4448   16.0586 C   0  0  0  0  0  0  0  0  0  0  0  0
   16.7393    1.5746   15.0952 N   0  0  0  0  0  0  0  0  0  0  0  0
   15.9395    0.4570   14.6068 C   0  0  0  0  0  0  0  0  0  0  0  0
   16.4451   -0.8773   14.8377 N   0  0  0  0  0  0  0  0  0  0  0  0
   15.8615   -1.9383   14.8824 C   0  0  0  0  0  0  0  0  0  0  0  0
   16.4126   -3.4053   15.1222 N   0  0  0  0  0  0  0  0  0  0  0  0
   17.7641   -3.8895   15.2574 C   0  0  0  0  0  0  0  0  0  0  0  0
   18.6761   -2.8926   15.9630 C   0  0  0  0  0  0  0  0  0  0  0  0
   20.0359   -3.5111   16.2807 C   0  0  0  0  0  0  0  0  0  0  0  0
   19.8895   -4.8162   17.0584 C   0  0  0  0  0  0  0  0  0  0  0  0
   19.0615   -5.7771   16.3287 N   0  0  0  0  0  0  0  0  0  0  0  0
   17.7300   -5.2130   16.0689 C   0  0  0  0  0  0  0  0  0  0  0  0
   14.3062   -2.0053   14.7794 C   0  0  0  0  0  0  0  0  0  0  0  0
   13.5643   -1.2332   13.8967 C   0  0  0  0  0  0  0  0  0  0  0  0
   12.1671   -1.2771   13.9224 C   0  0  0  0  0  0  0  0  0  0  0  0
   11.4821   -2.1664   14.7458 C   0  0  0  0  0  0  0  0  0  0  0  0
   12.1933   -2.9995   15.5785 C   0  0  0  0  0  0  0  0  0  0  0  0
   13.5856   -2.8985   15.5969 C   0  0  0  0  0  0  0  0  0  0  0  0
   18.1057    1.2873   15.5167 C   0  0  0  0  0  0  0  0  0  0  0  0
   18.2694    0.7219   16.9438 C   0  0  0  0  0  0  0  0  0  0  0  0
   15.3409   -0.2211   17.9458 C   0  0  0  0  0  0  0  0  0  0  0  0
   14.8290   -1.4746   18.2528 C   0  0  0  0  0  0  0  0  0  0  0  0
   14.0299   -5.1624   21.1283 H   0  0  0  0  0  0  0  0  0  0  0  0
   14.9646   -3.7304   21.6409 H   0  0  0  0  0  0  0  0  0  0  0  0
   13.3059   -3.5516   20.9705 H   0  0  0  0  0  0  0  0  0  0  0  0
   17.1988   -2.5760   20.3994 H   0  0  0  0  0  0  0  0  0  0  0  0
   18.1391   -0.3706   19.8224 H   0  0  0  0  0  0  0  0  0  0  0  0
   15.7775    2.7140   18.2097 H   0  0  0  0  0  0  0  0  0  0  0  0
   17.3089    3.2897   17.5909 H   0  0  0  0  0  0  0  0  0  0  0  0
   14.9682    2.2702   16.0788 H   0  0  0  0  0  0  0  0  0  0  0  0
   16.1318    3.4712   15.6757 H   0  0  0  0  0  0  0  0  0  0  0  0
   14.9138    0.5662   14.9635 H   0  0  0  0  0  0  0  0  0  0  0  0
   15.8961    0.6005   13.5204 H   0  0  0  0  0  0  0  0  0  0  0  0
   15.6383   -4.0499   15.1787 H   0  0  0  0  0  0  0  0  0  0  0  0
   18.1628   -4.0976   14.2572 H   0  0  0  0  0  0  0  0  0  0  0  0
   18.8274   -2.0064   15.3384 H   0  0  0  0  0  0  0  0  0  0  0  0
   18.2079   -2.5655   16.8986 H   0  0  0  0  0  0  0  0  0  0  0  0
   20.6341   -2.8007   16.8626 H   0  0  0  0  0  0  0  0  0  0  0  0
   20.5799   -3.6968   15.3460 H   0  0  0  0  0  0  0  0  0  0  0  0
   19.4603   -4.6221   18.0492 H   0  0  0  0  0  0  0  0  0  0  0  0
   20.8810   -5.2535   17.2183 H   0  0  0  0  0  0  0  0  0  0  0  0
   18.9495   -6.6157   16.9010 H   0  0  0  0  0  0  0  0  0  0  0  0
   17.1482   -5.9568   15.5113 H   0  0  0  0  0  0  0  0  0  0  0  0
   17.2059   -5.0586   17.0164 H   0  0  0  0  0  0  0  0  0  0  0  0
   14.0408   -0.5792   13.1752 H   0  0  0  0  0  0  0  0  0  0  0  0
   11.5917   -0.6032   13.2922 H   0  0  0  0  0  0  0  0  0  0  0  0
   10.3980   -2.2069   14.7221 H   0  0  0  0  0  0  0  0  0  0  0  0
   11.6951   -3.7293   16.2110 H   0  0  0  0  0  0  0  0  0  0  0  0
   14.1177   -3.5654   16.2596 H   0  0  0  0  0  0  0  0  0  0  0  0
   18.6208    0.6425   14.7938 H   0  0  0  0  0  0  0  0  0  0  0  0
   18.6599    2.2356   15.4746 H   0  0  0  0  0  0  0  0  0  0  0  0
   18.2426   -0.3678   16.8854 H   0  0  0  0  0  0  0  0  0  0  0  0
   19.2740    0.9772   17.3037 H   0  0  0  0  0  0  0  0  0  0  0  0
   14.8288    0.3703   17.2035 H   0  0  0  0  0  0  0  0  0  0  0  0
   13.9399   -1.8208   17.7609 H   0  0  0  0  0  0  0  0  0  0  0  0
  1  2  1  0
  2  3  2  0
  2  4  2  0
  2  5  1  0
  5  6  2  0
  6  7  1  0
  7  8  2  0
  8  9  1  0
  9 10  1  0
 10 11  1  0
 11 12  1  0
 12 13  1  0
 13 14  1  0
 14 15  2  3
 15 16  1  0
 16 17  1  0
 17 18  1  0
 18 19  1  0
 19 20  1  0
 20 21  1  0
 21 22  1  0
 15 23  1  0
 23 24  2  0
 24 25  1  0
 25 26  2  0
 26 27  1  0
 27 28  2  0
 12 29  1  0
 29 30  1  0
  8 31  1  0
 31 32  2  0
 32  5  1  0
 30  9  1  0
 22 17  1  0
 28 23  1  0
  1 33  1  0
  1 34  1  0
  1 35  1  0
  6 36  1  0
  7 37  1  0
 10 38  1  0
 10 39  1  0
 11 40  1  0
 11 41  1  0
 13 42  1  0
 13 43  1  0
 16 44  1  0
 17 45  1  0
 18 46  1  0
 18 47  1  0
 19 48  1  0
 19 49  1  0
 20 50  1  0
 20 51  1  0
 21 52  1  0
 22 53  1  0
 22 54  1  0
 24 55  1  0
 25 56  1  0
 26 57  1  0
 27 58  1  0
 28 59  1  0
 29 60  1  0
 29 61  1  0
 30 62  1  0
 30 63  1  0
 31 64  1  0
 32 65  1  0
M  END
>  <Energy>  (649) 
176.32910680675803

>  <compound_id>  (649) 
1997

>  <target_id>  (649) 
1

>  <reference_id>  (649) 
124

>  <inspiration_ids>  (649) 
[124, 61]

>  <energy_score>  (649) 
-9.328218850560063

>  <distance_score>  (649) 
2.1814071770869417

>  <path>  (649) 
/opt/xchem-fragalysis-2/maxwin/BulkDock/SCRATCH/505734/C1997-P124/C1997-P124.minimised.mol

>  <scratch_subdir>  (649) 
/opt/xchem-fragalysis-2/maxwin/BulkDock/SCRATCH/505734/C1997-P124

>  <fragmenstein_runtime>  (649) 
16.48192024230957

>  <fragmenstein_outcome>  (649) 
too moved

>  <fragmenstein_mode>  (649) 
expansion

>  <fragmenstein_error>  (649) 


$$$$
C1997-P61
     RDKit          3D

 65 68  0  0  0  0  0  0  0  0999 V2000
   14.8735   -4.1914   20.4271 C   0  0  0  0  0  0  0  0  0  0  0  0
   14.5120   -3.6470   18.7812 S   0  0  0  0  0  0  0  0  0  0  0  0
   15.2826   -4.4212   17.8272 O   0  0  0  0  0  0  0  0  0  0  0  0
   13.0786   -3.6301   18.6364 O   0  0  0  0  0  0  0  0  0  0  0  0
   15.0692   -1.9763   18.6718 C   0  0  0  0  0  0  0  0  0  0  0  0
   16.3008   -1.6056   19.1850 C   0  0  0  0  0  0  0  0  0  0  0  0
   16.8258   -0.3694   18.8151 C   0  0  0  0  0  0  0  0  0  0  0  0
   16.1488    0.4722   17.9110 C   0  0  0  0  0  0  0  0  0  0  0  0
   16.8997    1.4183   17.1801 N   0  0  0  0  0  0  0  0  0  0  0  0
   16.1823    2.4085   16.3461 C   0  0  0  0  0  0  0  0  0  0  0  0
   15.7866    1.8380   14.9597 C   0  0  0  0  0  0  0  0  0  0  0  0
   16.8811    1.2472   14.1842 N   0  0  0  0  0  0  0  0  0  0  0  0
   16.5154    0.0542   13.4282 C   0  0  0  0  0  0  0  0  0  0  0  0
   16.4601   -1.1728   14.1372 N   0  0  0  0  0  0  0  0  0  0  0  0
   15.8700   -2.0523   14.6939 C   0  0  0  0  0  0  0  0  0  0  0  0
   16.3925   -3.4101   15.2928 N   0  0  0  0  0  0  0  0  0  0  0  0
   17.7334   -3.9239   15.4203 C   0  0  0  0  0  0  0  0  0  0  0  0
   18.5365   -3.1105   16.4375 C   0  0  0  0  0  0  0  0  0  0  0  0
   19.5004   -3.9908   17.2222 C   0  0  0  0  0  0  0  0  0  0  0  0
   18.7530   -5.1070   17.9570 C   0  0  0  0  0  0  0  0  0  0  0  0
   17.6483   -5.7151   17.2112 N   0  0  0  0  0  0  0  0  0  0  0  0
   17.7272   -5.4320   15.7750 C   0  0  0  0  0  0  0  0  0  0  0  0
   14.2660   -1.9678   14.8027 C   0  0  0  0  0  0  0  0  0  0  0  0
   13.5351   -0.9496   14.1885 C   0  0  0  0  0  0  0  0  0  0  0  0
   12.1347   -0.8722   14.2486 C   0  0  0  0  0  0  0  0  0  0  0  0
   11.3984   -1.8343   14.9182 C   0  0  0  0  0  0  0  0  0  0  0  0
   12.0662   -2.8769   15.5220 C   0  0  0  0  0  0  0  0  0  0  0  0
   13.4702   -2.9324   15.4661 C   0  0  0  0  0  0  0  0  0  0  0  0
   18.1235    1.1385   14.9539 C   0  0  0  0  0  0  0  0  0  0  0  0
   17.9567    0.6749   16.4162 C   0  0  0  0  0  0  0  0  0  0  0  0
   14.8163    0.1882   17.6352 C   0  0  0  0  0  0  0  0  0  0  0  0
   14.2951   -1.0510   17.9781 C   0  0  0  0  0  0  0  0  0  0  0  0
   15.9539   -4.2434   20.5671 H   0  0  0  0  0  0  0  0  0  0  0  0
   14.4165   -3.5012   21.1389 H   0  0  0  0  0  0  0  0  0  0  0  0
   14.4432   -5.1878   20.5526 H   0  0  0  0  0  0  0  0  0  0  0  0
   16.9194   -2.2863   19.7594 H   0  0  0  0  0  0  0  0  0  0  0  0
   17.8424   -0.1192   19.1127 H   0  0  0  0  0  0  0  0  0  0  0  0
   15.3047    2.8085   16.8684 H   0  0  0  0  0  0  0  0  0  0  0  0
   16.8480    3.2694   16.2002 H   0  0  0  0  0  0  0  0  0  0  0  0
   14.9912    1.1108   15.1036 H   0  0  0  0  0  0  0  0  0  0  0  0
   15.3472    2.6483   14.3662 H   0  0  0  0  0  0  0  0  0  0  0  0
   15.6460    0.2521   12.7990 H   0  0  0  0  0  0  0  0  0  0  0  0
   17.3005   -0.0700   12.6695 H   0  0  0  0  0  0  0  0  0  0  0  0
   15.6379   -3.8810   15.7655 H   0  0  0  0  0  0  0  0  0  0  0  0
   18.2160   -3.8289   14.4397 H   0  0  0  0  0  0  0  0  0  0  0  0
   19.0922   -2.3188   15.9220 H   0  0  0  0  0  0  0  0  0  0  0  0
   17.8670   -2.6143   17.1439 H   0  0  0  0  0  0  0  0  0  0  0  0
   20.0579   -3.3842   17.9449 H   0  0  0  0  0  0  0  0  0  0  0  0
   20.2390   -4.4247   16.5365 H   0  0  0  0  0  0  0  0  0  0  0  0
   18.3531   -4.7147   18.8999 H   0  0  0  0  0  0  0  0  0  0  0  0
   19.4678   -5.8907   18.2325 H   0  0  0  0  0  0  0  0  0  0  0  0
   16.7634   -5.2988   17.5347 H   0  0  0  0  0  0  0  0  0  0  0  0
   18.6381   -5.9010   15.3802 H   0  0  0  0  0  0  0  0  0  0  0  0
   16.8963   -5.9323   15.2662 H   0  0  0  0  0  0  0  0  0  0  0  0
   14.0055   -0.1772   13.6081 H   0  0  0  0  0  0  0  0  0  0  0  0
   11.6130   -0.0705   13.7284 H   0  0  0  0  0  0  0  0  0  0  0  0
   10.3140   -1.7868   14.9212 H   0  0  0  0  0  0  0  0  0  0  0  0
   11.5219   -3.6724   16.0250 H   0  0  0  0  0  0  0  0  0  0  0  0
   13.8828   -3.8134   15.9341 H   0  0  0  0  0  0  0  0  0  0  0  0
   18.8504    0.4946   14.4428 H   0  0  0  0  0  0  0  0  0  0  0  0
   18.5885    2.1334   14.9652 H   0  0  0  0  0  0  0  0  0  0  0  0
   17.7546   -0.3996   16.3810 H   0  0  0  0  0  0  0  0  0  0  0  0
   18.9112    0.8084   16.9399 H   0  0  0  0  0  0  0  0  0  0  0  0
   14.1929    0.8393   17.0359 H   0  0  0  0  0  0  0  0  0  0  0  0
   13.3070   -1.3091   17.6134 H   0  0  0  0  0  0  0  0  0  0  0  0
  1  2  1  0
  2  3  2  0
  2  4  2  0
  2  5  1  0
  5  6  2  0
  6  7  1  0
  7  8  2  0
  8  9  1  0
  9 10  1  0
 10 11  1  0
 11 12  1  0
 12 13  1  0
 13 14  1  0
 14 15  2  3
 15 16  1  0
 16 17  1  0
 17 18  1  0
 18 19  1  0
 19 20  1  0
 20 21  1  0
 21 22  1  0
 15 23  1  0
 23 24  2  0
 24 25  1  0
 25 26  2  0
 26 27  1  0
 27 28  2  0
 12 29  1  0
 29 30  1  0
  8 31  1  0
 31 32  2  0
 32  5  1  0
 30  9  1  0
 22 17  1  0
 28 23  1  0
  1 33  1  0
  1 34  1  0
  1 35  1  0
  6 36  1  0
  7 37  1  0
 10 38  1  0
 10 39  1  0
 11 40  1  0
 11 41  1  0
 13 42  1  0
 13 43  1  0
 16 44  1  0
 17 45  1  0
 18 46  1  0
 18 47  1  0
 19 48  1  0
 19 49  1  0
 20 50  1  0
 20 51  1  0
 21 52  1  0
 22 53  1  0
 22 54  1  0
 24 55  1  0
 25 56  1  0
 26 57  1  0
 27 58  1  0
 28 59  1  0
 29 60  1  0
 29 61  1  0
 30 62  1  0
 30 63  1  0
 31 64  1  0
 32 65  1  0
M  END
>  <Energy>  (650) 
187.59872407424649

>  <compound_id>  (650) 
1997

>  <target_id>  (650) 
1

>  <reference_id>  (650) 
61

>  <inspiration_ids>  (650) 
[124, 61]

>  <energy_score>  (650) 
1.9413984169254377

>  <distance_score>  (650) 
2.030242829546737

>  <path>  (650) 
/opt/xchem-fragalysis-2/maxwin/BulkDock/SCRATCH/505734/C1997-P61/C1997-P61.minimised.mol

>  <scratch_subdir>  (650) 
/opt/xchem-fragalysis-2/maxwin/BulkDock/SCRATCH/505734/C1997-P61

>  <fragmenstein_runtime>  (650) 
15.040042638778687

>  <fragmenstein_outcome>  (650) 
too moved

>  <fragmenstein_mode>  (650) 
expansion

>  <fragmenstein_error>  (650) 


$$$$
C3629-P124
     RDKit          3D

 38 39  0  0  0  0  0  0  0  0999 V2000
   13.7539   -3.4202   17.9930 C   0  0  0  0  0  0  0  0  0  0  0  0
   12.7912   -3.6038   16.5210 S   0  0  0  0  0  0  0  0  0  0  0  0
   12.9320   -4.9903   16.1930 O   0  0  0  0  0  0  0  0  0  0  0  0
   11.4864   -2.9987   16.5999 O   0  0  0  0  0  0  0  0  0  0  0  0
   13.6174   -2.5797   15.3828 C   0  0  0  0  0  0  0  0  0  0  0  0
   14.9089   -2.8558   15.0163 C   0  0  0  0  0  0  0  0  0  0  0  0
   15.5884   -1.8293   14.4331 C   0  0  0  0  0  0  0  0  0  0  0  0
   15.3292   -0.6576   15.0721 C   0  0  0  0  0  0  0  0  0  0  0  0
   15.9205   -0.5560   16.3913 N   0  0  0  0  0  0  0  0  0  0  0  0
   15.7135    0.7588   17.0347 C   0  0  0  0  0  0  0  0  0  0  0  0
   16.6293    1.8158   16.3974 C   0  0  0  0  0  0  0  0  0  0  0  0
   18.0482    1.4282   16.3462 N   0  0  0  0  0  0  0  0  0  0  0  0
   18.2530    0.0519   15.8348 C   0  0  0  0  0  0  0  0  0  0  0  0
   17.3729   -0.9803   16.5615 C   0  0  0  0  0  0  0  0  0  0  0  0
   18.0797   -2.6793   16.4470 S   0  0  0  0  0  0  0  0  0  0  0  0
   18.5226   -3.0390   14.7597 C   0  0  0  0  0  0  0  0  0  0  0  0
   17.1109   -3.6787   16.8587 O   0  0  0  0  0  0  0  0  0  0  0  0
   19.3514   -2.6309   17.1577 O   0  0  0  0  0  0  0  0  0  0  0  0
   13.9952   -0.3086   14.9169 C   0  0  0  0  0  0  0  0  0  0  0  0
   13.0833   -1.3450   15.0441 C   0  0  0  0  0  0  0  0  0  0  0  0
   14.6862   -3.9741   17.8694 H   0  0  0  0  0  0  0  0  0  0  0  0
   13.9940   -2.3706   18.1598 H   0  0  0  0  0  0  0  0  0  0  0  0
   13.2084   -3.8562   18.8307 H   0  0  0  0  0  0  0  0  0  0  0  0
   15.3653   -3.8278   15.1683 H   0  0  0  0  0  0  0  0  0  0  0  0
   16.5131   -1.9697   13.9065 H   0  0  0  0  0  0  0  0  0  0  0  0
   14.6774    1.0927   16.9818 H   0  0  0  0  0  0  0  0  0  0  0  0
   15.9415    0.6700   18.1047 H   0  0  0  0  0  0  0  0  0  0  0  0
   16.5433    2.7516   16.9603 H   0  0  0  0  0  0  0  0  0  0  0  0
   16.2903    2.0300   15.3764 H   0  0  0  0  0  0  0  0  0  0  0  0
   18.5648    2.0928   15.7699 H   0  0  0  0  0  0  0  0  0  0  0  0
   19.3136   -0.1881   15.9662 H   0  0  0  0  0  0  0  0  0  0  0  0
   18.0605    0.0426   14.7559 H   0  0  0  0  0  0  0  0  0  0  0  0
   17.5532   -0.8317   17.6398 H   0  0  0  0  0  0  0  0  0  0  0  0
   17.7278   -3.5954   14.2661 H   0  0  0  0  0  0  0  0  0  0  0  0
   19.4049   -3.6857   14.7874 H   0  0  0  0  0  0  0  0  0  0  0  0
   18.7840   -2.1242   14.2303 H   0  0  0  0  0  0  0  0  0  0  0  0
   13.6559    0.7208   14.9366 H   0  0  0  0  0  0  0  0  0  0  0  0
   12.0180   -1.1606   15.0751 H   0  0  0  0  0  0  0  0  0  0  0  0
  1  2  1  0
  2  3  2  0
  2  4  2  0
  2  5  1  0
  5  6  2  0
  6  7  1  0
  7  8  2  0
  8  9  1  0
  9 10  1  0
 10 11  1  0
 11 12  1  0
 12 13  1  0
 13 14  1  0
 14 15  1  0
 15 16  1  0
 15 17  2  0
 15 18  2  0
  8 19  1  0
 19 20  2  0
 20  5  1  0
 14  9  1  0
  1 21  1  0
  1 22  1  0
  1 23  1  0
  6 24  1  0
  7 25  1  0
 10 26  1  0
 10 27  1  0
 11 28  1  0
 11 29  1  0
 12 30  1  0
 13 31  1  0
 13 32  1  0
 14 33  1  0
 16 34  1  0
 16 35  1  0
 16 36  1  0
 19 37  1  0
 20 38  1  0
M  END
>  <Energy>  (651) 
280.70817701289161

>  <compound_id>  (651) 
3629

>  <target_id>  (651) 
1

>  <reference_id>  (651) 
124

>  <inspiration_ids>  (651) 
[124, 63]

>  <energy_score>  (651) 
47.32280022616902

>  <distance_score>  (651) 
2.752419843343121

>  <path>  (651) 
/opt/xchem-fragalysis-2/maxwin/BulkDock/SCRATCH/505734/C3629-P124/C3629-P124.minimised.mol

>  <scratch_subdir>  (651) 
/opt/xchem-fragalysis-2/maxwin/BulkDock/SCRATCH/505734/C3629-P124

>  <fragmenstein_runtime>  (651) 
45.803428411483765

>  <fragmenstein_outcome>  (651) 
too moved

>  <fragmenstein_mode>  (651) 
expansion

>  <fragmenstein_error>  (651) 


$$$$
C3629-P63
     RDKit          3D

 38 39  0  0  0  0  0  0  0  0999 V2000
   13.5450   -3.5904   18.2503 C   0  0  0  0  0  0  0  0  0  0  0  0
   13.0912   -3.8496   16.5829 S   0  0  0  0  0  0  0  0  0  0  0  0
   14.3202   -4.3724   16.0231 O   0  0  0  0  0  0  0  0  0  0  0  0
   11.8506   -4.5816   16.5510 O   0  0  0  0  0  0  0  0  0  0  0  0
   12.6853   -2.2670   15.7186 C   0  0  0  0  0  0  0  0  0  0  0  0
   13.5083   -1.9817   14.6591 C   0  0  0  0  0  0  0  0  0  0  0  0
   14.6534   -1.2624   14.9601 C   0  0  0  0  0  0  0  0  0  0  0  0
   14.8287   -0.7519   16.2438 C   0  0  0  0  0  0  0  0  0  0  0  0
   16.0473   -0.5721   16.8702 N   0  0  0  0  0  0  0  0  0  0  0  0
   16.2294    0.7429   17.5371 C   0  0  0  0  0  0  0  0  0  0  0  0
   17.1397    1.6632   16.6880 C   0  0  0  0  0  0  0  0  0  0  0  0
   17.2090    1.2805   15.2562 N   0  0  0  0  0  0  0  0  0  0  0  0
   17.7615   -0.1025   15.1331 C   0  0  0  0  0  0  0  0  0  0  0  0
   17.3464   -1.0517   16.2785 C   0  0  0  0  0  0  0  0  0  0  0  0
   17.8405   -2.7757   15.9973 S   0  0  0  0  0  0  0  0  0  0  0  0
   17.2052   -3.3034   14.4381 C   0  0  0  0  0  0  0  0  0  0  0  0
   17.2702   -3.6265   17.0249 O   0  0  0  0  0  0  0  0  0  0  0  0
   19.2890   -2.7613   15.8335 O   0  0  0  0  0  0  0  0  0  0  0  0
   13.6512   -0.5342   16.9536 C   0  0  0  0  0  0  0  0  0  0  0  0
   12.5205   -1.2268   16.5864 C   0  0  0  0  0  0  0  0  0  0  0  0
   13.7595   -4.5669   18.6933 H   0  0  0  0  0  0  0  0  0  0  0  0
   14.4488   -2.9816   18.3012 H   0  0  0  0  0  0  0  0  0  0  0  0
   12.7467   -3.1343   18.8056 H   0  0  0  0  0  0  0  0  0  0  0  0
   13.4048   -2.4797   13.7038 H   0  0  0  0  0  0  0  0  0  0  0  0
   15.4276   -1.2229   14.2068 H   0  0  0  0  0  0  0  0  0  0  0  0
   15.2903    1.2750   17.7189 H   0  0  0  0  0  0  0  0  0  0  0  0
   16.6899    0.5796   18.5190 H   0  0  0  0  0  0  0  0  0  0  0  0
   18.1555    1.6666   17.1034 H   0  0  0  0  0  0  0  0  0  0  0  0
   16.7824    2.6965   16.7631 H   0  0  0  0  0  0  0  0  0  0  0  0
   16.2413    1.2480   14.9254 H   0  0  0  0  0  0  0  0  0  0  0  0
   18.8559   -0.0305   15.1044 H   0  0  0  0  0  0  0  0  0  0  0  0
   17.4710   -0.4836   14.1515 H   0  0  0  0  0  0  0  0  0  0  0  0
   18.0642   -0.8411   17.0908 H   0  0  0  0  0  0  0  0  0  0  0  0
   16.1284   -3.3976   14.4954 H   0  0  0  0  0  0  0  0  0  0  0  0
   17.6396   -4.2863   14.2380 H   0  0  0  0  0  0  0  0  0  0  0  0
   17.5110   -2.6160   13.6509 H   0  0  0  0  0  0  0  0  0  0  0  0
   13.6329    0.0265   17.8821 H   0  0  0  0  0  0  0  0  0  0  0  0
   11.6007   -1.1370   17.1147 H   0  0  0  0  0  0  0  0  0  0  0  0
  1  2  1  0
  2  3  2  0
  2  4  2  0
  2  5  1  0
  5  6  2  0
  6  7  1  0
  7  8  2  0
  8  9  1  0
  9 10  1  0
 10 11  1  0
 11 12  1  0
 12 13  1  0
 13 14  1  0
 14 15  1  0
 15 16  1  0
 15 17  2  0
 15 18  2  0
  8 19  1  0
 19 20  2  0
 20  5  1  0
 14  9  1  0
  1 21  1  0
  1 22  1  0
  1 23  1  0
  6 24  1  0
  7 25  1  0
 10 26  1  0
 10 27  1  0
 11 28  1  0
 11 29  1  0
 12 30  1  0
 13 31  1  0
 13 32  1  0
 14 33  1  0
 16 34  1  0
 16 35  1  0
 16 36  1  0
 19 37  1  0
 20 38  1  0
M  END
>  <Energy>  (652) 
268.16166183385371

>  <compound_id>  (652) 
3629

>  <target_id>  (652) 
1

>  <reference_id>  (652) 
63

>  <inspiration_ids>  (652) 
[124, 63]

>  <energy_score>  (652) 
34.77628504712959

>  <distance_score>  (652) 
2.4013440881544588

>  <path>  (652) 
/opt/xchem-fragalysis-2/maxwin/BulkDock/SCRATCH/505734/C3629-P63/C3629-P63.minimised.mol

>  <scratch_subdir>  (652) 
/opt/xchem-fragalysis-2/maxwin/BulkDock/SCRATCH/505734/C3629-P63

>  <fragmenstein_runtime>  (652) 
37.629680156707764

>  <fragmenstein_outcome>  (652) 
too moved

>  <fragmenstein_mode>  (652) 
expansion

>  <fragmenstein_error>  (652) 


$$$$
C3631-P124
     RDKit          3D

 58 62  0  0  0  0  0  0  0  0999 V2000
   16.4681   -9.3128   19.9774 C   0  0  0  0  0  0  0  0  0  0  0  0
   17.0614   -8.0724   21.0971 S   0  0  0  0  0  0  0  0  0  0  0  0
   16.0517   -7.8804   22.1220 O   0  0  0  0  0  0  0  0  0  0  0  0
   18.4301   -8.3943   21.4548 O   0  0  0  0  0  0  0  0  0  0  0  0
   17.1137   -6.6025   20.1055 C   0  0  0  0  0  0  0  0  0  0  0  0
   18.1326   -6.4462   19.1711 C   0  0  0  0  0  0  0  0  0  0  0  0
   18.1518   -5.3099   18.3529 C   0  0  0  0  0  0  0  0  0  0  0  0
   17.1722   -4.3071   18.4444 C   0  0  0  0  0  0  0  0  0  0  0  0
   17.1044   -3.2238   17.5843 N   0  0  0  0  0  0  0  0  0  0  0  0
   17.8167   -3.2410   16.2796 C   0  0  0  0  0  0  0  0  0  0  0  0
   18.9369   -2.1638   16.2337 C   0  0  0  0  0  0  0  0  0  0  0  0
   19.5220   -1.8342   17.5536 N   0  0  0  0  0  0  0  0  0  0  0  0
   18.4747   -1.3736   18.5027 C   0  0  0  0  0  0  0  0  0  0  0  0
   17.0427   -1.8338   18.1302 C   0  0  0  0  0  0  0  0  0  0  0  0
   15.9843   -1.2407   19.0111 N   0  0  0  0  0  0  0  0  0  0  0  0
   15.7053    0.1071   18.9339 N   0  0  0  0  0  0  0  0  0  0  0  0
   15.5215    0.6256   17.7480 C   0  0  0  0  0  0  0  0  0  0  0  0
   16.1757    1.8051   17.5612 N   0  0  0  0  0  0  0  0  0  0  0  0
   16.9576    1.5494   16.4696 C   0  0  0  0  0  0  0  0  0  0  0  0
   17.9559    2.1631   16.1388 O   0  0  0  0  0  0  0  0  0  0  0  0
   16.4896    0.3929   15.8297 N   0  0  0  0  0  0  0  0  0  0  0  0
   15.1565    0.1311   16.3133 C   0  0  0  0  0  0  0  0  0  0  0  0
   14.2902    1.0894   15.4054 C   0  0  0  0  0  0  0  0  0  0  0  0
   13.7586    0.2479   14.2398 C   0  0  0  0  0  0  0  0  0  0  0  0
   13.5746   -1.0533   14.9237 C   0  0  0  0  0  0  0  0  0  0  0  0
   12.5706   -1.9587   14.6136 C   0  0  0  0  0  0  0  0  0  0  0  0
   12.3739   -3.0340   15.4580 C   0  0  0  0  0  0  0  0  0  0  0  0
   13.2215   -3.2315   16.5339 C   0  0  0  0  0  0  0  0  0  0  0  0
   14.2291   -2.3122   16.8119 C   0  0  0  0  0  0  0  0  0  0  0  0
   14.4250   -1.1776   16.0356 C   0  0  0  0  0  0  0  0  0  0  0  0
   16.1932   -4.4793   19.4408 C   0  0  0  0  0  0  0  0  0  0  0  0
   16.1553   -5.6090   20.2675 C   0  0  0  0  0  0  0  0  0  0  0  0
   17.1505   -9.3919   19.1294 H   0  0  0  0  0  0  0  0  0  0  0  0
   15.4658   -9.0393   19.6486 H   0  0  0  0  0  0  0  0  0  0  0  0
   16.4334  -10.2635   20.5140 H   0  0  0  0  0  0  0  0  0  0  0  0
   18.9128   -7.1969   19.0653 H   0  0  0  0  0  0  0  0  0  0  0  0
   18.9734   -5.2312   17.6472 H   0  0  0  0  0  0  0  0  0  0  0  0
   17.0878   -3.0139   15.4914 H   0  0  0  0  0  0  0  0  0  0  0  0
   18.2214   -4.2230   16.0195 H   0  0  0  0  0  0  0  0  0  0  0  0
   19.7387   -2.5232   15.5780 H   0  0  0  0  0  0  0  0  0  0  0  0
   18.5734   -1.2461   15.7613 H   0  0  0  0  0  0  0  0  0  0  0  0
   19.8850   -2.7089   17.9376 H   0  0  0  0  0  0  0  0  0  0  0  0
   18.7364   -1.7323   19.5055 H   0  0  0  0  0  0  0  0  0  0  0  0
   18.5189   -0.2789   18.5403 H   0  0  0  0  0  0  0  0  0  0  0  0
   16.8617   -1.3061   17.2150 H   0  0  0  0  0  0  0  0  0  0  0  0
   16.2047   -1.4987   19.9757 H   0  0  0  0  0  0  0  0  0  0  0  0
   16.6607    2.2230   18.3413 H   0  0  0  0  0  0  0  0  0  0  0  0
   16.8003    0.2130   14.8843 H   0  0  0  0  0  0  0  0  0  0  0  0
   13.4890    1.5664   15.9564 H   0  0  0  0  0  0  0  0  0  0  0  0
   14.8512    1.9386   14.9908 H   0  0  0  0  0  0  0  0  0  0  0  0
   14.5047    0.1530   13.4435 H   0  0  0  0  0  0  0  0  0  0  0  0
   12.8395    0.6642   13.8213 H   0  0  0  0  0  0  0  0  0  0  0  0
   11.9026   -1.7915   13.7724 H   0  0  0  0  0  0  0  0  0  0  0  0
   11.5525   -3.7210   15.2754 H   0  0  0  0  0  0  0  0  0  0  0  0
   13.0639   -4.0811   17.1940 H   0  0  0  0  0  0  0  0  0  0  0  0
   14.7293   -2.5006   17.7380 H   0  0  0  0  0  0  0  0  0  0  0  0
   15.3952   -3.7513   19.5603 H   0  0  0  0  0  0  0  0  0  0  0  0
   15.3665   -5.7030   21.0106 H   0  0  0  0  0  0  0  0  0  0  0  0
  1  2  1  0
  2  3  2  0
  2  4  2  0
  2  5  1  0
  5  6  2  0
  6  7  1  0
  7  8  2  0
  8  9  1  0
  9 10  1  0
 10 11  1  0
 11 12  1  0
 12 13  1  0
 13 14  1  0
 14 15  1  0
 15 16  1  0
 16 17  2  3
 17 18  1  0
 18 19  1  0
 19 20  2  0
 19 21  1  0
 21 22  1  0
 22 23  1  0
 23 24  1  0
 24 25  1  0
 25 26  2  0
 26 27  1  0
 27 28  2  0
 28 29  1  0
 29 30  2  0
  8 31  1  0
 31 32  2  0
 32  5  1  0
 14  9  1  0
 22 17  1  0
 30 25  1  0
 30 22  1  0
  1 33  1  0
  1 34  1  0
  1 35  1  0
  6 36  1  0
  7 37  1  0
 10 38  1  0
 10 39  1  0
 11 40  1  0
 11 41  1  0
 12 42  1  0
 13 43  1  0
 13 44  1  0
 14 45  1  0
 15 46  1  0
 18 47  1  0
 21 48  1  0
 23 49  1  0
 23 50  1  0
 24 51  1  0
 24 52  1  0
 26 53  1  0
 27 54  1  0
 28 55  1  0
 29 56  1  0
 31 57  1  0
 32 58  1  0
M  END
>  <Energy>  (653) 
198.02826591829719

>  <compound_id>  (653) 
3631

>  <target_id>  (653) 
1

>  <reference_id>  (653) 
124

>  <inspiration_ids>  (653) 
[124, 71]

>  <energy_score>  (653) 
-12.033160041342342

>  <distance_score>  (653) 
3.034494550902768

>  <path>  (653) 
/opt/xchem-fragalysis-2/maxwin/BulkDock/SCRATCH/505734/C3631-P124/C3631-P124.minimised.mol

>  <scratch_subdir>  (653) 
/opt/xchem-fragalysis-2/maxwin/BulkDock/SCRATCH/505734/C3631-P124

>  <fragmenstein_runtime>  (653) 
5.2389185428619385

>  <fragmenstein_outcome>  (653) 
too moved

>  <fragmenstein_mode>  (653) 
expansion

>  <fragmenstein_error>  (653) 


$$$$
C3631-P71
     RDKit          3D

 58 62  0  0  0  0  0  0  0  0999 V2000
   16.7309   -9.5848   19.1661 C   0  0  0  0  0  0  0  0  0  0  0  0
   16.6656   -8.3967   20.4786 S   0  0  0  0  0  0  0  0  0  0  0  0
   15.3244   -8.4270   21.0345 O   0  0  0  0  0  0  0  0  0  0  0  0
   17.8261   -8.5925   21.3267 O   0  0  0  0  0  0  0  0  0  0  0  0
   16.8796   -6.8243   19.6814 C   0  0  0  0  0  0  0  0  0  0  0  0
   18.0424   -6.5655   18.9610 C   0  0  0  0  0  0  0  0  0  0  0  0
   18.2177   -5.3132   18.3546 C   0  0  0  0  0  0  0  0  0  0  0  0
   17.2589   -4.2902   18.4651 C   0  0  0  0  0  0  0  0  0  0  0  0
   17.4211   -3.0245   17.8946 N   0  0  0  0  0  0  0  0  0  0  0  0
   18.4487   -2.8678   16.8400 C   0  0  0  0  0  0  0  0  0  0  0  0
   18.3067   -1.5310   16.0716 C   0  0  0  0  0  0  0  0  0  0  0  0
   18.1332   -0.3328   16.9004 N   0  0  0  0  0  0  0  0  0  0  0  0
   18.1838   -0.6819   18.3327 C   0  0  0  0  0  0  0  0  0  0  0  0
   17.1962   -1.8245   18.7919 C   0  0  0  0  0  0  0  0  0  0  0  0
   15.8009   -1.2726   19.0113 N   0  0  0  0  0  0  0  0  0  0  0  0
   15.6327    0.0581   19.2552 N   0  0  0  0  0  0  0  0  0  0  0  0
   15.1992    0.7406   18.2372 C   0  0  0  0  0  0  0  0  0  0  0  0
   15.6123    2.0376   18.1516 N   0  0  0  0  0  0  0  0  0  0  0  0
   15.9496    2.2175   16.8423 C   0  0  0  0  0  0  0  0  0  0  0  0
   16.6050    3.1350   16.3829 O   0  0  0  0  0  0  0  0  0  0  0  0
   15.4934    1.1207   16.1069 N   0  0  0  0  0  0  0  0  0  0  0  0
   14.5059    0.4326   16.8910 C   0  0  0  0  0  0  0  0  0  0  0  0
   13.1516    1.2069   16.7338 C   0  0  0  0  0  0  0  0  0  0  0  0
   12.1977    0.3831   15.8593 C   0  0  0  0  0  0  0  0  0  0  0  0
   12.7298   -0.9803   16.0729 C   0  0  0  0  0  0  0  0  0  0  0  0
   12.0580   -2.1641   15.8391 C   0  0  0  0  0  0  0  0  0  0  0  0
   12.7439   -3.3467   16.0499 C   0  0  0  0  0  0  0  0  0  0  0  0
   14.1083   -3.3211   16.3070 C   0  0  0  0  0  0  0  0  0  0  0  0
   14.7666   -2.1112   16.4492 C   0  0  0  0  0  0  0  0  0  0  0  0
   14.0663   -0.9353   16.4771 C   0  0  0  0  0  0  0  0  0  0  0  0
   16.0951   -4.5982   19.1919 C   0  0  0  0  0  0  0  0  0  0  0  0
   15.9041   -5.8412   19.8059 C   0  0  0  0  0  0  0  0  0  0  0  0
   17.7148   -9.5543   18.6955 H   0  0  0  0  0  0  0  0  0  0  0  0
   15.9496   -9.3617   18.4437 H   0  0  0  0  0  0  0  0  0  0  0  0
   16.5622  -10.5738   19.5981 H   0  0  0  0  0  0  0  0  0  0  0  0
   18.8307   -7.3102   18.8836 H   0  0  0  0  0  0  0  0  0  0  0  0
   19.1507   -5.1485   17.8228 H   0  0  0  0  0  0  0  0  0  0  0  0
   18.3630   -3.6774   16.1041 H   0  0  0  0  0  0  0  0  0  0  0  0
   19.4510   -2.9222   17.2844 H   0  0  0  0  0  0  0  0  0  0  0  0
   19.2073   -1.3924   15.4617 H   0  0  0  0  0  0  0  0  0  0  0  0
   17.4816   -1.5966   15.3541 H   0  0  0  0  0  0  0  0  0  0  0  0
   17.2040    0.0370   16.7010 H   0  0  0  0  0  0  0  0  0  0  0  0
   18.0475    0.2284   18.9271 H   0  0  0  0  0  0  0  0  0  0  0  0
   19.2111   -0.9927   18.5704 H   0  0  0  0  0  0  0  0  0  0  0  0
   17.5560   -2.0955   19.7956 H   0  0  0  0  0  0  0  0  0  0  0  0
   15.4323   -1.8024   19.8043 H   0  0  0  0  0  0  0  0  0  0  0  0
   16.2202    2.4358   18.8495 H   0  0  0  0  0  0  0  0  0  0  0  0
   15.4683    1.1958   15.0985 H   0  0  0  0  0  0  0  0  0  0  0  0
   13.2669    2.2079   16.2975 H   0  0  0  0  0  0  0  0  0  0  0  0
   12.7338    1.3802   17.7255 H   0  0  0  0  0  0  0  0  0  0  0  0
   12.3002    0.6624   14.8047 H   0  0  0  0  0  0  0  0  0  0  0  0
   11.1534    0.4975   16.1570 H   0  0  0  0  0  0  0  0  0  0  0  0
   11.0240   -2.1745   15.5100 H   0  0  0  0  0  0  0  0  0  0  0  0
   12.2261   -4.2954   15.9550 H   0  0  0  0  0  0  0  0  0  0  0  0
   14.6686   -4.2493   16.3779 H   0  0  0  0  0  0  0  0  0  0  0  0
   15.8227   -2.1118   16.5977 H   0  0  0  0  0  0  0  0  0  0  0  0
   15.2893   -3.8742   19.2718 H   0  0  0  0  0  0  0  0  0  0  0  0
   14.9964   -6.0182   20.3785 H   0  0  0  0  0  0  0  0  0  0  0  0
  1  2  1  0
  2  3  2  0
  2  4  2  0
  2  5  1  0
  5  6  2  0
  6  7  1  0
  7  8  2  0
  8  9  1  0
  9 10  1  0
 10 11  1  0
 11 12  1  0
 12 13  1  0
 13 14  1  0
 14 15  1  0
 15 16  1  0
 16 17  2  3
 17 18  1  0
 18 19  1  0
 19 20  2  0
 19 21  1  0
 21 22  1  0
 22 23  1  0
 23 24  1  0
 24 25  1  0
 25 26  2  0
 26 27  1  0
 27 28  2  0
 28 29  1  0
 29 30  2  0
  8 31  1  0
 31 32  2  0
 32  5  1  0
 14  9  1  0
 22 17  1  0
 30 25  1  0
 30 22  1  0
  1 33  1  0
  1 34  1  0
  1 35  1  0
  6 36  1  0
  7 37  1  0
 10 38  1  0
 10 39  1  0
 11 40  1  0
 11 41  1  0
 12 42  1  0
 13 43  1  0
 13 44  1  0
 14 45  1  0
 15 46  1  0
 18 47  1  0
 21 48  1  0
 23 49  1  0
 23 50  1  0
 24 51  1  0
 24 52  1  0
 26 53  1  0
 27 54  1  0
 28 55  1  0
 29 56  1  0
 31 57  1  0
 32 58  1  0
M  END
>  <Energy>  (654) 
168.19679894279392

>  <compound_id>  (654) 
3631

>  <target_id>  (654) 
1

>  <reference_id>  (654) 
71

>  <inspiration_ids>  (654) 
[124, 71]

>  <energy_score>  (654) 
-41.86462701684502

>  <distance_score>  (654) 
2.9081622881126967

>  <path>  (654) 
/opt/xchem-fragalysis-2/maxwin/BulkDock/SCRATCH/505734/C3631-P71/C3631-P71.minimised.mol

>  <scratch_subdir>  (654) 
/opt/xchem-fragalysis-2/maxwin/BulkDock/SCRATCH/505734/C3631-P71

>  <fragmenstein_runtime>  (654) 
5.19686484336853

>  <fragmenstein_outcome>  (654) 
too moved

>  <fragmenstein_mode>  (654) 
expansion

>  <fragmenstein_error>  (654) 


$$$$
C3633-P124
     RDKit          3D

 56 58  0  0  0  0  0  0  0  0999 V2000
   15.7653    2.0381   19.2924 C   0  0  0  0  0  0  0  0  0  0  0  0
   16.5865    0.8199   19.0170 C   0  0  0  0  0  0  0  0  0  0  0  0
   16.6974   -0.2360   19.9224 C   0  0  0  0  0  0  0  0  0  0  0  0
   17.3700   -1.4056   19.5474 C   0  0  0  0  0  0  0  0  0  0  0  0
   17.9255   -1.5357   18.2606 C   0  0  0  0  0  0  0  0  0  0  0  0
   18.5486   -2.8203   17.8061 C   0  0  0  0  0  0  0  0  0  0  0  0
   17.5106   -3.6027   16.6124 S   0  0  0  0  0  0  0  0  0  0  0  0
   18.2306   -5.0644   16.1940 N   0  0  0  0  0  0  0  0  0  0  0  0
   17.6017   -2.9030   15.3496 O   0  0  0  0  0  0  0  0  0  0  0  0
   16.2607   -4.1964   17.3155 N   0  0  0  0  0  0  0  0  0  0  0  0
   15.0816   -3.3449   17.7848 N   0  0  0  0  0  0  0  0  0  0  0  0
   14.4205   -2.4384   16.8405 C   0  0  0  0  0  0  0  0  0  0  0  0
   14.4207   -3.0700   15.4665 C   0  0  0  0  0  0  0  0  0  0  0  0
   13.9042   -2.1608   14.4304 N   0  0  0  0  0  0  0  0  0  0  0  0
   12.5392   -1.9890   14.4529 C   0  0  0  0  0  0  0  0  0  0  0  0
   11.7256   -2.9969   14.9630 C   0  0  0  0  0  0  0  0  0  0  0  0
   10.3765   -2.8717   15.0425 C   0  0  0  0  0  0  0  0  0  0  0  0
    9.7962   -1.6824   14.7297 C   0  0  0  0  0  0  0  0  0  0  0  0
    8.0281   -1.5367   14.6976 S   0  0  0  0  0  0  0  0  0  0  0  0
    7.2961   -1.2359   13.0871 C   0  0  0  0  0  0  0  0  0  0  0  0
    7.8229   -0.3551   15.5129 O   0  0  0  0  0  0  0  0  0  0  0  0
    7.4305   -2.7506   15.1485 O   0  0  0  0  0  0  0  0  0  0  0  0
   10.5758   -0.6686   14.1544 C   0  0  0  0  0  0  0  0  0  0  0  0
   11.9310   -0.8497   13.9625 C   0  0  0  0  0  0  0  0  0  0  0  0
   14.7792   -0.9901   14.3343 C   0  0  0  0  0  0  0  0  0  0  0  0
   14.7942   -0.2705   15.6893 C   0  0  0  0  0  0  0  0  0  0  0  0
   15.0364   -1.1241   16.8745 N   0  0  0  0  0  0  0  0  0  0  0  0
   17.8828   -0.4511   17.3919 C   0  0  0  0  0  0  0  0  0  0  0  0
   17.2033    0.6880   17.7747 C   0  0  0  0  0  0  0  0  0  0  0  0
   17.0347    1.6297   16.8527 F   0  0  0  0  0  0  0  0  0  0  0  0
   14.8182    1.9863   18.7469 H   0  0  0  0  0  0  0  0  0  0  0  0
   16.3031    2.9440   18.9939 H   0  0  0  0  0  0  0  0  0  0  0  0
   15.5421    2.1284   20.3607 H   0  0  0  0  0  0  0  0  0  0  0  0
   16.2410   -0.1729   20.9081 H   0  0  0  0  0  0  0  0  0  0  0  0
   17.4246   -2.2324   20.2550 H   0  0  0  0  0  0  0  0  0  0  0  0
   19.5256   -2.6349   17.3481 H   0  0  0  0  0  0  0  0  0  0  0  0
   18.6908   -3.5136   18.6416 H   0  0  0  0  0  0  0  0  0  0  0  0
   18.0360   -5.1389   15.1992 H   0  0  0  0  0  0  0  0  0  0  0  0
   17.6167   -5.7485   16.6270 H   0  0  0  0  0  0  0  0  0  0  0  0
   15.3423   -2.7881   18.5980 H   0  0  0  0  0  0  0  0  0  0  0  0
   13.3890   -2.3649   17.1829 H   0  0  0  0  0  0  0  0  0  0  0  0
   13.9141   -4.0260   15.6014 H   0  0  0  0  0  0  0  0  0  0  0  0
   15.4043   -3.3565   15.1094 H   0  0  0  0  0  0  0  0  0  0  0  0
   12.0967   -3.9466   15.3068 H   0  0  0  0  0  0  0  0  0  0  0  0
    9.8147   -3.7582   15.2443 H   0  0  0  0  0  0  0  0  0  0  0  0
    7.7753   -0.3756   12.6364 H   0  0  0  0  0  0  0  0  0  0  0  0
    6.2755   -0.9936   13.1629 H   0  0  0  0  0  0  0  0  0  0  0  0
    7.2434   -2.0690   12.4229 H   0  0  0  0  0  0  0  0  0  0  0  0
   10.1103    0.2388   13.7758 H   0  0  0  0  0  0  0  0  0  0  0  0
   12.4806   -0.0531   13.4770 H   0  0  0  0  0  0  0  0  0  0  0  0
   15.7961   -1.3246   14.0928 H   0  0  0  0  0  0  0  0  0  0  0  0
   14.5115   -0.3125   13.5175 H   0  0  0  0  0  0  0  0  0  0  0  0
   15.5537    0.5090   15.6335 H   0  0  0  0  0  0  0  0  0  0  0  0
   13.8508    0.2616   15.8112 H   0  0  0  0  0  0  0  0  0  0  0  0
   14.7846   -0.6255   17.7195 H   0  0  0  0  0  0  0  0  0  0  0  0
   18.2978   -0.5029   16.3888 H   0  0  0  0  0  0  0  0  0  0  0  0
  1  2  1  0
  2  3  2  0
  3  4  1  0
  4  5  2  0
  5  6  1  0
  6  7  1  0
  7  8  1  0
  7  9  2  0
  7 10  2  0
 10 11  1  0
 11 12  1  0
 12 13  1  0
 13 14  1  0
 14 15  1  0
 15 16  2  0
 16 17  1  0
 17 18  2  0
 18 19  1  0
 19 20  1  0
 19 21  2  0
 19 22  2  0
 18 23  1  0
 23 24  2  0
 14 25  1  0
 25 26  1  0
 26 27  1  0
  5 28  1  0
 28 29  2  0
 29 30  1  0
 29  2  1  0
 27 12  1  0
 24 15  1  0
  1 31  1  0
  1 32  1  0
  1 33  1  0
  3 34  1  0
  4 35  1  0
  6 36  1  0
  6 37  1  0
  8 38  1  0
  8 39  1  0
 11 40  1  0
 12 41  1  0
 13 42  1  0
 13 43  1  0
 16 44  1  0
 17 45  1  0
 20 46  1  0
 20 47  1  0
 20 48  1  0
 23 49  1  0
 24 50  1  0
 25 51  1  0
 25 52  1  0
 26 53  1  0
 26 54  1  0
 27 55  1  0
 28 56  1  0
M  END
>  <Energy>  (655) 
158.42771373486428

>  <compound_id>  (655) 
3633

>  <target_id>  (655) 
1

>  <reference_id>  (655) 
124

>  <inspiration_ids>  (655) 
[124, 80]

>  <energy_score>  (655) 
-53.5717598308792

>  <distance_score>  (655) 
2.4036250678635187

>  <path>  (655) 
/opt/xchem-fragalysis-2/maxwin/BulkDock/SCRATCH/505734/C3633-P124/C3633-P124.minimised.mol

>  <scratch_subdir>  (655) 
/opt/xchem-fragalysis-2/maxwin/BulkDock/SCRATCH/505734/C3633-P124

>  <fragmenstein_runtime>  (655) 
37.730878829956055

>  <fragmenstein_outcome>  (655) 
too moved

>  <fragmenstein_mode>  (655) 
expansion

>  <fragmenstein_error>  (655) 


$$$$
C3633-P80
     RDKit          3D

 56 58  0  0  0  0  0  0  0  0999 V2000
   16.1416    1.8736   19.3075 C   0  0  0  0  0  0  0  0  0  0  0  0
   16.6875    0.5671   18.8259 C   0  0  0  0  0  0  0  0  0  0  0  0
   16.8118   -0.5461   19.6558 C   0  0  0  0  0  0  0  0  0  0  0  0
   17.2910   -1.7526   19.1317 C   0  0  0  0  0  0  0  0  0  0  0  0
   17.6613   -1.8556   17.7777 C   0  0  0  0  0  0  0  0  0  0  0  0
   18.1762   -3.1402   17.2129 C   0  0  0  0  0  0  0  0  0  0  0  0
   16.9850   -3.8392   16.1140 S   0  0  0  0  0  0  0  0  0  0  0  0
   17.5337   -5.3816   15.7260 N   0  0  0  0  0  0  0  0  0  0  0  0
   17.0614   -3.2011   14.8204 O   0  0  0  0  0  0  0  0  0  0  0  0
   15.7391   -4.2599   16.9198 N   0  0  0  0  0  0  0  0  0  0  0  0
   14.3590   -3.8225   16.5882 N   0  0  0  0  0  0  0  0  0  0  0  0
   13.9936   -2.4193   16.3742 C   0  0  0  0  0  0  0  0  0  0  0  0
   14.5071   -1.7340   15.0476 C   0  0  0  0  0  0  0  0  0  0  0  0
   13.7696   -0.4452   14.7994 N   0  0  0  0  0  0  0  0  0  0  0  0
   12.3940   -0.6357   14.5905 C   0  0  0  0  0  0  0  0  0  0  0  0
   11.9202   -1.9231   14.3299 C   0  0  0  0  0  0  0  0  0  0  0  0
   10.6710   -2.2767   14.7392 C   0  0  0  0  0  0  0  0  0  0  0  0
    9.7724   -1.2489   14.9488 C   0  0  0  0  0  0  0  0  0  0  0  0
    8.0967   -1.6642   14.9126 S   0  0  0  0  0  0  0  0  0  0  0  0
    7.3527   -1.5248   13.3416 C   0  0  0  0  0  0  0  0  0  0  0  0
    7.5022   -0.7137   15.8187 O   0  0  0  0  0  0  0  0  0  0  0  0
    7.9562   -3.0537   15.1924 O   0  0  0  0  0  0  0  0  0  0  0  0
   10.1453    0.0886   15.0094 C   0  0  0  0  0  0  0  0  0  0  0  0
   11.4737    0.3941   14.8191 C   0  0  0  0  0  0  0  0  0  0  0  0
   14.0671    0.4566   15.9424 C   0  0  0  0  0  0  0  0  0  0  0  0
   13.7192   -0.2258   17.3003 C   0  0  0  0  0  0  0  0  0  0  0  0
   14.3073   -1.5644   17.5180 N   0  0  0  0  0  0  0  0  0  0  0  0
   17.5838   -0.7314   16.9682 C   0  0  0  0  0  0  0  0  0  0  0  0
   17.1075    0.4461   17.5047 C   0  0  0  0  0  0  0  0  0  0  0  0
   17.0025    1.4839   16.6830 F   0  0  0  0  0  0  0  0  0  0  0  0
   16.9613    2.5351   19.6041 H   0  0  0  0  0  0  0  0  0  0  0  0
   15.4831    1.7258   20.1701 H   0  0  0  0  0  0  0  0  0  0  0  0
   15.5499    2.3683   18.5302 H   0  0  0  0  0  0  0  0  0  0  0  0
   16.5131   -0.4958   20.6999 H   0  0  0  0  0  0  0  0  0  0  0  0
   17.3537   -2.6211   19.7851 H   0  0  0  0  0  0  0  0  0  0  0  0
   18.3739   -3.8704   18.0048 H   0  0  0  0  0  0  0  0  0  0  0  0
   19.1077   -2.9793   16.6606 H   0  0  0  0  0  0  0  0  0  0  0  0
   17.1712   -5.5060   14.7833 H   0  0  0  0  0  0  0  0  0  0  0  0
   16.9446   -5.9669   16.3086 H   0  0  0  0  0  0  0  0  0  0  0  0
   13.7117   -4.2012   17.2808 H   0  0  0  0  0  0  0  0  0  0  0  0
   12.9061   -2.4811   16.3750 H   0  0  0  0  0  0  0  0  0  0  0  0
   14.4864   -2.3817   14.1684 H   0  0  0  0  0  0  0  0  0  0  0  0
   15.5579   -1.4585   15.1569 H   0  0  0  0  0  0  0  0  0  0  0  0
   12.5442   -2.7201   13.9509 H   0  0  0  0  0  0  0  0  0  0  0  0
   10.3698   -3.3163   14.6805 H   0  0  0  0  0  0  0  0  0  0  0  0
    7.5863   -2.3156   12.6968 H   0  0  0  0  0  0  0  0  0  0  0  0
    6.3107   -1.6808   13.5268 H   0  0  0  0  0  0  0  0  0  0  0  0
    7.6081   -0.6170   12.8168 H   0  0  0  0  0  0  0  0  0  0  0  0
    9.4288    0.8751   15.2118 H   0  0  0  0  0  0  0  0  0  0  0  0
   11.7892    1.4288   14.8987 H   0  0  0  0  0  0  0  0  0  0  0  0
   15.1285    0.6828   15.8893 H   0  0  0  0  0  0  0  0  0  0  0  0
   13.5827    1.4347   15.8670 H   0  0  0  0  0  0  0  0  0  0  0  0
   13.9984    0.4338   18.1241 H   0  0  0  0  0  0  0  0  0  0  0  0
   12.6355   -0.3344   17.3511 H   0  0  0  0  0  0  0  0  0  0  0  0
   13.9723   -1.9876   18.3763 H   0  0  0  0  0  0  0  0  0  0  0  0
   17.8754   -0.7544   15.9219 H   0  0  0  0  0  0  0  0  0  0  0  0
  1  2  1  0
  2  3  2  0
  3  4  1  0
  4  5  2  0
  5  6  1  0
  6  7  1  0
  7  8  1  0
  7  9  2  0
  7 10  2  0
 10 11  1  0
 11 12  1  0
 12 13  1  0
 13 14  1  0
 14 15  1  0
 15 16  2  0
 16 17  1  0
 17 18  2  0
 18 19  1  0
 19 20  1  0
 19 21  2  0
 19 22  2  0
 18 23  1  0
 23 24  2  0
 14 25  1  0
 25 26  1  0
 26 27  1  0
  5 28  1  0
 28 29  2  0
 29 30  1  0
 29  2  1  0
 27 12  1  0
 24 15  1  0
  1 31  1  0
  1 32  1  0
  1 33  1  0
  3 34  1  0
  4 35  1  0
  6 36  1  0
  6 37  1  0
  8 38  1  0
  8 39  1  0
 11 40  1  0
 12 41  1  0
 13 42  1  0
 13 43  1  0
 16 44  1  0
 17 45  1  0
 20 46  1  0
 20 47  1  0
 20 48  1  0
 23 49  1  0
 24 50  1  0
 25 51  1  0
 25 52  1  0
 26 53  1  0
 26 54  1  0
 27 55  1  0
 28 56  1  0
M  END
>  <Energy>  (656) 
162.98440670068931

>  <compound_id>  (656) 
3633

>  <target_id>  (656) 
1

>  <reference_id>  (656) 
80

>  <inspiration_ids>  (656) 
[124, 80]

>  <energy_score>  (656) 
-49.015066865056184

>  <distance_score>  (656) 
2.1985045992107852

>  <path>  (656) 
/opt/xchem-fragalysis-2/maxwin/BulkDock/SCRATCH/505734/C3633-P80/C3633-P80.minimised.mol

>  <scratch_subdir>  (656) 
/opt/xchem-fragalysis-2/maxwin/BulkDock/SCRATCH/505734/C3633-P80

>  <fragmenstein_runtime>  (656) 
35.11057209968567

>  <fragmenstein_outcome>  (656) 
too moved

>  <fragmenstein_mode>  (656) 
expansion

>  <fragmenstein_error>  (656) 


$$$$
C3634-P124
     RDKit          3D

 58 60  0  0  0  0  0  0  0  0999 V2000
   15.7718    1.5232   19.2277 C   0  0  0  0  0  0  0  0  0  0  0  0
   16.5955    0.4880   18.5341 C   0  0  0  0  0  0  0  0  0  0  0  0
   17.5010   -0.3291   19.2045 C   0  0  0  0  0  0  0  0  0  0  0  0
   18.2257   -1.2960   18.4930 C   0  0  0  0  0  0  0  0  0  0  0  0
   18.0916   -1.4460   17.0940 C   0  0  0  0  0  0  0  0  0  0  0  0
   18.7276   -2.6640   16.4669 C   0  0  0  0  0  0  0  0  0  0  0  0
   18.5117   -2.9394   14.7109 S   0  0  0  0  0  0  0  0  0  0  0  0
   18.9699   -4.2768   14.4146 O   0  0  0  0  0  0  0  0  0  0  0  0
   19.0346   -1.8048   13.9831 O   0  0  0  0  0  0  0  0  0  0  0  0
   16.8732   -3.0533   14.4713 N   0  0  0  0  0  0  0  0  0  0  0  0
   16.3296   -2.2172   13.4144 C   0  0  0  0  0  0  0  0  0  0  0  0
   14.9136   -2.0687   13.5330 N   0  0  0  0  0  0  0  0  0  0  0  0
   14.3847   -1.7387   14.8462 C   0  0  0  0  0  0  0  0  0  0  0  0
   13.6005   -0.4139   14.6156 C   0  0  0  0  0  0  0  0  0  0  0  0
   12.3330   -0.5382   13.8962 N   0  0  0  0  0  0  0  0  0  0  0  0
   11.6808   -1.8145   14.1647 C   0  0  0  0  0  0  0  0  0  0  0  0
   12.1118   -2.6527   15.3668 C   0  0  0  0  0  0  0  0  0  0  0  0
   13.5603   -2.7230   15.6031 N   0  0  0  0  0  0  0  0  0  0  0  0
   13.9753   -3.2780   16.8212 C   0  0  0  0  0  0  0  0  0  0  0  0
   15.2885   -3.2413   17.2801 C   0  0  0  0  0  0  0  0  0  0  0  0
   15.7110   -3.6991   18.5417 C   0  0  0  0  0  0  0  0  0  0  0  0
   14.7894   -4.2337   19.4161 C   0  0  0  0  0  0  0  0  0  0  0  0
   15.3056   -4.8270   21.0025 S   0  0  0  0  0  0  0  0  0  0  0  0
   16.3136   -6.2350   20.6152 C   0  0  0  0  0  0  0  0  0  0  0  0
   16.1588   -3.8078   21.5819 O   0  0  0  0  0  0  0  0  0  0  0  0
   14.1315   -5.3227   21.6962 O   0  0  0  0  0  0  0  0  0  0  0  0
   13.4785   -4.3460   19.0011 C   0  0  0  0  0  0  0  0  0  0  0  0
   13.1112   -3.9372   17.6971 C   0  0  0  0  0  0  0  0  0  0  0  0
   17.3151   -0.5101   16.4310 C   0  0  0  0  0  0  0  0  0  0  0  0
   16.5215    0.3661   17.1552 C   0  0  0  0  0  0  0  0  0  0  0  0
   15.5938    1.0428   16.4853 F   0  0  0  0  0  0  0  0  0  0  0  0
   15.6829    1.3006   20.2963 H   0  0  0  0  0  0  0  0  0  0  0  0
   14.7573    1.5559   18.8198 H   0  0  0  0  0  0  0  0  0  0  0  0
   16.2337    2.5091   19.1166 H   0  0  0  0  0  0  0  0  0  0  0  0
   17.6169   -0.2593   20.2844 H   0  0  0  0  0  0  0  0  0  0  0  0
   18.8697   -1.9712   19.0572 H   0  0  0  0  0  0  0  0  0  0  0  0
   18.3702   -3.5739   16.9607 H   0  0  0  0  0  0  0  0  0  0  0  0
   19.8127   -2.6070   16.6152 H   0  0  0  0  0  0  0  0  0  0  0  0
   16.5984   -4.0294   14.3135 H   0  0  0  0  0  0  0  0  0  0  0  0
   16.7611   -1.2135   13.4155 H   0  0  0  0  0  0  0  0  0  0  0  0
   16.5684   -2.6557   12.4396 H   0  0  0  0  0  0  0  0  0  0  0  0
   14.3503   -2.7293   13.0245 H   0  0  0  0  0  0  0  0  0  0  0  0
   15.1922   -1.4076   15.4842 H   0  0  0  0  0  0  0  0  0  0  0  0
   13.4412    0.0597   15.5805 H   0  0  0  0  0  0  0  0  0  0  0  0
   14.2272    0.3020   14.0663 H   0  0  0  0  0  0  0  0  0  0  0  0
   11.7350    0.2442   14.1796 H   0  0  0  0  0  0  0  0  0  0  0  0
   10.6232   -1.6118   14.3297 H   0  0  0  0  0  0  0  0  0  0  0  0
   11.7753   -2.4355   13.2733 H   0  0  0  0  0  0  0  0  0  0  0  0
   11.7020   -3.6598   15.2373 H   0  0  0  0  0  0  0  0  0  0  0  0
   11.6178   -2.2234   16.2406 H   0  0  0  0  0  0  0  0  0  0  0  0
   16.0439   -2.8409   16.6375 H   0  0  0  0  0  0  0  0  0  0  0  0
   16.7535   -3.6175   18.8288 H   0  0  0  0  0  0  0  0  0  0  0  0
   17.1679   -5.9163   20.0155 H   0  0  0  0  0  0  0  0  0  0  0  0
   16.6651   -6.6661   21.5553 H   0  0  0  0  0  0  0  0  0  0  0  0
   15.7117   -6.9687   20.0765 H   0  0  0  0  0  0  0  0  0  0  0  0
   12.7331   -4.7902   19.6571 H   0  0  0  0  0  0  0  0  0  0  0  0
   12.0957   -4.1509   17.3875 H   0  0  0  0  0  0  0  0  0  0  0  0
   17.2266   -0.4784   15.3555 H   0  0  0  0  0  0  0  0  0  0  0  0
  1  2  1  0
  2  3  2  0
  3  4  1  0
  4  5  2  0
  5  6  1  0
  6  7  1  0
  7  8  2  0
  7  9  2  0
  7 10  1  0
 10 11  1  0
 11 12  1  0
 12 13  1  0
 13 14  1  0
 14 15  1  0
 15 16  1  0
 16 17  1  0
 17 18  1  0
 18 19  1  0
 19 20  2  0
 20 21  1  0
 21 22  2  0
 22 23  1  0
 23 24  1  0
 23 25  2  0
 23 26  2  0
 22 27  1  0
 27 28  2  0
  5 29  1  0
 29 30  2  0
 30 31  1  0
 30  2  1  0
 18 13  1  0
 28 19  1  0
  1 32  1  0
  1 33  1  0
  1 34  1  0
  3 35  1  0
  4 36  1  0
  6 37  1  0
  6 38  1  0
 10 39  1  0
 11 40  1  0
 11 41  1  0
 12 42  1  0
 13 43  1  0
 14 44  1  0
 14 45  1  0
 15 46  1  0
 16 47  1  0
 16 48  1  0
 17 49  1  0
 17 50  1  0
 20 51  1  0
 21 52  1  0
 24 53  1  0
 24 54  1  0
 24 55  1  0
 27 56  1  0
 28 57  1  0
 29 58  1  0
M  END
>  <Energy>  (657) 
52.707549557610314

>  <compound_id>  (657) 
3634

>  <target_id>  (657) 
1

>  <reference_id>  (657) 
124

>  <inspiration_ids>  (657) 
[124, 81]

>  <energy_score>  (657) 
-28.447474144924215

>  <distance_score>  (657) 
1.9248918053499398

>  <path>  (657) 
/opt/xchem-fragalysis-2/maxwin/BulkDock/SCRATCH/505734/C3634-P124/C3634-P124.minimised.mol

>  <scratch_subdir>  (657) 
/opt/xchem-fragalysis-2/maxwin/BulkDock/SCRATCH/505734/C3634-P124

>  <fragmenstein_runtime>  (657) 
71.96303272247314

>  <fragmenstein_outcome>  (657) 
too moved

>  <fragmenstein_mode>  (657) 
expansion

>  <fragmenstein_error>  (657) 


$$$$
C3634-P81
     RDKit          3D

 58 60  0  0  0  0  0  0  0  0999 V2000
   16.2361    1.2553   19.4467 C   0  0  0  0  0  0  0  0  0  0  0  0
   16.9711    0.2542   18.6118 C   0  0  0  0  0  0  0  0  0  0  0  0
   17.5932   -0.8857   19.1283 C   0  0  0  0  0  0  0  0  0  0  0  0
   18.1454   -1.8442   18.2605 C   0  0  0  0  0  0  0  0  0  0  0  0
   18.1886   -1.6214   16.8755 C   0  0  0  0  0  0  0  0  0  0  0  0
   18.7666   -2.6340   15.9219 C   0  0  0  0  0  0  0  0  0  0  0  0
   17.5998   -3.8500   15.2928 S   0  0  0  0  0  0  0  0  0  0  0  0
   16.7030   -4.2612   16.3433 O   0  0  0  0  0  0  0  0  0  0  0  0
   18.3586   -4.8458   14.5632 O   0  0  0  0  0  0  0  0  0  0  0  0
   16.6906   -3.0531   14.1466 N   0  0  0  0  0  0  0  0  0  0  0  0
   15.9388   -1.9122   14.5933 C   0  0  0  0  0  0  0  0  0  0  0  0
   14.6140   -1.7076   14.0791 N   0  0  0  0  0  0  0  0  0  0  0  0
   13.7629   -1.3232   15.2271 C   0  0  0  0  0  0  0  0  0  0  0  0
   12.5404   -0.4674   14.7512 C   0  0  0  0  0  0  0  0  0  0  0  0
   11.6394   -1.1870   13.8597 N   0  0  0  0  0  0  0  0  0  0  0  0
   11.5176   -2.5975   14.2381 C   0  0  0  0  0  0  0  0  0  0  0  0
   11.9352   -2.9539   15.6657 C   0  0  0  0  0  0  0  0  0  0  0  0
   13.2735   -2.4644   16.0130 N   0  0  0  0  0  0  0  0  0  0  0  0
   13.7201   -2.7636   17.2937 C   0  0  0  0  0  0  0  0  0  0  0  0
   13.6066   -4.0652   17.8023 C   0  0  0  0  0  0  0  0  0  0  0  0
   14.0003   -4.3997   19.1027 C   0  0  0  0  0  0  0  0  0  0  0  0
   14.5372   -3.4286   19.9302 C   0  0  0  0  0  0  0  0  0  0  0  0
   15.0855   -3.8706   21.5546 S   0  0  0  0  0  0  0  0  0  0  0  0
   16.5615   -4.8028   21.2357 C   0  0  0  0  0  0  0  0  0  0  0  0
   15.4900   -2.6579   22.2415 O   0  0  0  0  0  0  0  0  0  0  0  0
   14.1020   -4.7741   22.1214 O   0  0  0  0  0  0  0  0  0  0  0  0
   14.6425   -2.1257   19.4763 C   0  0  0  0  0  0  0  0  0  0  0  0
   14.2647   -1.8096   18.1609 C   0  0  0  0  0  0  0  0  0  0  0  0
   17.7275   -0.3954   16.4034 C   0  0  0  0  0  0  0  0  0  0  0  0
   17.0227    0.4446   17.2428 C   0  0  0  0  0  0  0  0  0  0  0  0
   16.3048    1.4144   16.6872 F   0  0  0  0  0  0  0  0  0  0  0  0
   16.2995    1.0014   20.5100 H   0  0  0  0  0  0  0  0  0  0  0  0
   15.1773    1.2851   19.1707 H   0  0  0  0  0  0  0  0  0  0  0  0
   16.6704    2.2519   19.3164 H   0  0  0  0  0  0  0  0  0  0  0  0
   17.5896   -1.0752   20.2007 H   0  0  0  0  0  0  0  0  0  0  0  0
   18.5469   -2.7646   18.6817 H   0  0  0  0  0  0  0  0  0  0  0  0
   19.2386   -2.1529   15.0582 H   0  0  0  0  0  0  0  0  0  0  0  0
   19.5543   -3.2042   16.4288 H   0  0  0  0  0  0  0  0  0  0  0  0
   16.2782   -3.6764   13.4496 H   0  0  0  0  0  0  0  0  0  0  0  0
   15.9211   -1.9245   15.6798 H   0  0  0  0  0  0  0  0  0  0  0  0
   16.4922   -1.0400   14.2454 H   0  0  0  0  0  0  0  0  0  0  0  0
   14.2268   -2.5781   13.7480 H   0  0  0  0  0  0  0  0  0  0  0  0
   14.3192   -0.6071   15.8423 H   0  0  0  0  0  0  0  0  0  0  0  0
   11.9795   -0.1256   15.6314 H   0  0  0  0  0  0  0  0  0  0  0  0
   12.8974    0.4322   14.2364 H   0  0  0  0  0  0  0  0  0  0  0  0
   10.7106   -0.7716   13.7963 H   0  0  0  0  0  0  0  0  0  0  0  0
   10.4785   -2.9083   14.1581 H   0  0  0  0  0  0  0  0  0  0  0  0
   12.0817   -3.1966   13.5174 H   0  0  0  0  0  0  0  0  0  0  0  0
   11.8498   -4.0370   15.7819 H   0  0  0  0  0  0  0  0  0  0  0  0
   11.2129   -2.4942   16.3432 H   0  0  0  0  0  0  0  0  0  0  0  0
   13.2191   -4.8525   17.1647 H   0  0  0  0  0  0  0  0  0  0  0  0
   13.8741   -5.4083   19.4709 H   0  0  0  0  0  0  0  0  0  0  0  0
   17.2725   -4.1720   20.6989 H   0  0  0  0  0  0  0  0  0  0  0  0
   16.9855   -5.1030   22.1965 H   0  0  0  0  0  0  0  0  0  0  0  0
   16.3102   -5.6896   20.6511 H   0  0  0  0  0  0  0  0  0  0  0  0
   14.9899   -1.3412   20.1423 H   0  0  0  0  0  0  0  0  0  0  0  0
   14.3331   -0.7676   17.8705 H   0  0  0  0  0  0  0  0  0  0  0  0
   17.8454   -0.1006   15.3665 H   0  0  0  0  0  0  0  0  0  0  0  0
  1  2  1  0
  2  3  2  0
  3  4  1  0
  4  5  2  0
  5  6  1  0
  6  7  1  0
  7  8  2  0
  7  9  2  0
  7 10  1  0
 10 11  1  0
 11 12  1  0
 12 13  1  0
 13 14  1  0
 14 15  1  0
 15 16  1  0
 16 17  1  0
 17 18  1  0
 18 19  1  0
 19 20  2  0
 20 21  1  0
 21 22  2  0
 22 23  1  0
 23 24  1  0
 23 25  2  0
 23 26  2  0
 22 27  1  0
 27 28  2  0
  5 29  1  0
 29 30  2  0
 30 31  1  0
 30  2  1  0
 18 13  1  0
 28 19  1  0
  1 32  1  0
  1 33  1  0
  1 34  1  0
  3 35  1  0
  4 36  1  0
  6 37  1  0
  6 38  1  0
 10 39  1  0
 11 40  1  0
 11 41  1  0
 12 42  1  0
 13 43  1  0
 14 44  1  0
 14 45  1  0
 15 46  1  0
 16 47  1  0
 16 48  1  0
 17 49  1  0
 17 50  1  0
 20 51  1  0
 21 52  1  0
 24 53  1  0
 24 54  1  0
 24 55  1  0
 27 56  1  0
 28 57  1  0
 29 58  1  0
M  END
>  <Energy>  (658) 
48.06579636298121

>  <compound_id>  (658) 
3634

>  <target_id>  (658) 
1

>  <reference_id>  (658) 
81

>  <inspiration_ids>  (658) 
[124, 81]

>  <energy_score>  (658) 
-33.089227339552906

>  <distance_score>  (658) 
2.031586953931584

>  <path>  (658) 
/opt/xchem-fragalysis-2/maxwin/BulkDock/SCRATCH/505734/C3634-P81/C3634-P81.minimised.mol

>  <scratch_subdir>  (658) 
/opt/xchem-fragalysis-2/maxwin/BulkDock/SCRATCH/505734/C3634-P81

>  <fragmenstein_runtime>  (658) 
65.76307725906372

>  <fragmenstein_outcome>  (658) 
too moved

>  <fragmenstein_mode>  (658) 
expansion

>  <fragmenstein_error>  (658) 


$$$$
C3635-P124
     RDKit          3D

 54 55  0  0  0  0  0  0  0  0999 V2000
   14.0643   -2.6644   16.0013 C   0  0  0  0  0  0  0  0  0  0  0  0
   14.9009   -1.5725   15.3008 C   0  0  0  0  0  0  0  0  0  0  0  0
   16.1008   -1.7045   15.1580 N   0  0  0  0  0  0  0  0  0  0  0  0
   16.7227   -2.8778   15.3887 N   0  0  0  0  0  0  0  0  0  0  0  0
   18.0886   -3.0347   14.8684 C   0  0  0  0  0  0  0  0  0  0  0  0
   18.3644   -2.1428   13.6120 C   0  0  0  0  0  0  0  0  0  0  0  0
   18.0412   -2.9199   12.3997 N   0  0  0  0  0  0  0  0  0  0  0  0
   17.3483   -2.2088   11.4532 C   0  0  0  0  0  0  0  0  0  0  0  0
   15.9645   -2.0919   11.6244 C   0  0  0  0  0  0  0  0  0  0  0  0
   15.2541   -1.0454   11.0474 C   0  0  0  0  0  0  0  0  0  0  0  0
   15.9382   -0.1255   10.2668 C   0  0  0  0  0  0  0  0  0  0  0  0
   15.1294    1.3577    9.7219 S   0  0  0  0  0  0  0  0  0  0  0  0
   16.2069    2.6761   10.2178 C   0  0  0  0  0  0  0  0  0  0  0  0
   13.9054    1.5019   10.4908 O   0  0  0  0  0  0  0  0  0  0  0  0
   15.1001    1.3045    8.2727 O   0  0  0  0  0  0  0  0  0  0  0  0
   17.2775   -0.3318    9.9411 C   0  0  0  0  0  0  0  0  0  0  0  0
   17.9776   -1.3856   10.5285 C   0  0  0  0  0  0  0  0  0  0  0  0
   18.9779   -4.0006   12.1573 C   0  0  0  0  0  0  0  0  0  0  0  0
   19.2244   -4.7348   13.5224 C   0  0  0  0  0  0  0  0  0  0  0  0
   18.2091   -4.4846   14.5862 N   0  0  0  0  0  0  0  0  0  0  0  0
   13.9446   -0.3795   14.8973 N   0  0  0  0  0  0  0  0  0  0  0  0
   14.2157    0.8382   14.1639 C   0  0  0  0  0  0  0  0  0  0  0  0
   15.4849    1.5778   14.6278 C   0  0  0  0  0  0  0  0  0  0  0  0
   16.1623    2.1954   13.9046 O   0  0  0  0  0  0  0  0  0  0  0  0
   15.5580    1.4000   16.1630 N   0  0  0  0  0  0  0  0  0  0  0  0
   16.5256    1.8633   17.1050 C   0  0  0  0  0  0  0  0  0  0  0  0
   15.8896    2.0623   18.4032 C   0  0  0  0  0  0  0  0  0  0  0  0
   15.3761    2.2353   19.4743 C   0  0  0  0  0  0  0  0  0  0  0  0
   14.5626    2.5178   21.1764 Br  0  0  0  0  0  0  0  0  0  0  0  0
   14.0129   -2.4227   17.0671 H   0  0  0  0  0  0  0  0  0  0  0  0
   13.0493   -2.6882   15.5947 H   0  0  0  0  0  0  0  0  0  0  0  0
   14.4881   -3.6642   15.9003 H   0  0  0  0  0  0  0  0  0  0  0  0
   16.7230   -3.1620   16.3676 H   0  0  0  0  0  0  0  0  0  0  0  0
   18.7954   -2.7451   15.6548 H   0  0  0  0  0  0  0  0  0  0  0  0
   17.8511   -1.1745   13.6575 H   0  0  0  0  0  0  0  0  0  0  0  0
   19.4350   -1.8928   13.5891 H   0  0  0  0  0  0  0  0  0  0  0  0
   15.4633   -2.7419   12.3387 H   0  0  0  0  0  0  0  0  0  0  0  0
   14.2025   -0.9212   11.2817 H   0  0  0  0  0  0  0  0  0  0  0  0
   15.7117    3.6209    9.9817 H   0  0  0  0  0  0  0  0  0  0  0  0
   17.1458    2.6112    9.6663 H   0  0  0  0  0  0  0  0  0  0  0  0
   16.3808    2.6109   11.2919 H   0  0  0  0  0  0  0  0  0  0  0  0
   17.8079    0.3511    9.2829 H   0  0  0  0  0  0  0  0  0  0  0  0
   19.0490   -1.4704   10.3680 H   0  0  0  0  0  0  0  0  0  0  0  0
   19.9274   -3.6199   11.7635 H   0  0  0  0  0  0  0  0  0  0  0  0
   18.5696   -4.7019   11.4232 H   0  0  0  0  0  0  0  0  0  0  0  0
   19.2814   -5.8135   13.3374 H   0  0  0  0  0  0  0  0  0  0  0  0
   20.2083   -4.4435   13.9117 H   0  0  0  0  0  0  0  0  0  0  0  0
   17.3057   -4.6765   14.1288 H   0  0  0  0  0  0  0  0  0  0  0  0
   12.9840   -0.6378   15.0906 H   0  0  0  0  0  0  0  0  0  0  0  0
   13.3764    1.5320   14.2636 H   0  0  0  0  0  0  0  0  0  0  0  0
   14.3317    0.5982   13.1073 H   0  0  0  0  0  0  0  0  0  0  0  0
   14.8605    0.7268   16.4592 H   0  0  0  0  0  0  0  0  0  0  0  0
   17.3143    1.1072   17.1634 H   0  0  0  0  0  0  0  0  0  0  0  0
   16.9707    2.7856   16.7207 H   0  0  0  0  0  0  0  0  0  0  0  0
  1  2  1  0
  2  3  2  3
  3  4  1  0
  4  5  1  0
  5  6  1  0
  6  7  1  0
  7  8  1  0
  8  9  2  0
  9 10  1  0
 10 11  2  0
 11 12  1  0
 12 13  1  0
 12 14  2  0
 12 15  2  0
 11 16  1  0
 16 17  2  0
  7 18  1  0
 18 19  1  0
 19 20  1  0
  2 21  1  0
 21 22  1  0
 22 23  1  0
 23 24  2  0
 23 25  1  0
 25 26  1  0
 26 27  1  0
 27 28  3  0
 28 29  1  0
 20  5  1  0
 17  8  1  0
  1 30  1  0
  1 31  1  0
  1 32  1  0
  4 33  1  0
  5 34  1  0
  6 35  1  0
  6 36  1  0
  9 37  1  0
 10 38  1  0
 13 39  1  0
 13 40  1  0
 13 41  1  0
 16 42  1  0
 17 43  1  0
 18 44  1  0
 18 45  1  0
 19 46  1  0
 19 47  1  0
 20 48  1  0
 21 49  1  0
 22 50  1  0
 22 51  1  0
 25 52  1  0
 26 53  1  0
 26 54  1  0
M  END
>  <Energy>  (659) 
172.66678093351231

>  <compound_id>  (659) 
3635

>  <target_id>  (659) 
1

>  <reference_id>  (659) 
124

>  <inspiration_ids>  (659) 
[124, 83]

>  <energy_score>  (659) 
-11.979301117309376

>  <distance_score>  (659) 
2.4818509574561918

>  <path>  (659) 
/opt/xchem-fragalysis-2/maxwin/BulkDock/SCRATCH/505734/C3635-P124/C3635-P124.minimised.mol

>  <scratch_subdir>  (659) 
/opt/xchem-fragalysis-2/maxwin/BulkDock/SCRATCH/505734/C3635-P124

>  <fragmenstein_runtime>  (659) 
58.07416868209839

>  <fragmenstein_outcome>  (659) 
too moved

>  <fragmenstein_mode>  (659) 
expansion

>  <fragmenstein_error>  (659) 


$$$$
C3635-P83
     RDKit          3D

 54 55  0  0  0  0  0  0  0  0999 V2000
   16.2904   -4.3718   18.1688 C   0  0  0  0  0  0  0  0  0  0  0  0
   16.4478   -3.4394   16.9815 C   0  0  0  0  0  0  0  0  0  0  0  0
   17.4424   -3.5805   16.2889 N   0  0  0  0  0  0  0  0  0  0  0  0
   17.5933   -2.7790   15.2061 N   0  0  0  0  0  0  0  0  0  0  0  0
   18.8926   -2.8275   14.5050 C   0  0  0  0  0  0  0  0  0  0  0  0
   18.8360   -2.0436   13.1559 C   0  0  0  0  0  0  0  0  0  0  0  0
   17.9382   -2.6867   12.1425 N   0  0  0  0  0  0  0  0  0  0  0  0
   16.8099   -1.9188   11.8509 C   0  0  0  0  0  0  0  0  0  0  0  0
   15.5078   -2.3197   12.1449 C   0  0  0  0  0  0  0  0  0  0  0  0
   14.4876   -1.3672   12.2633 C   0  0  0  0  0  0  0  0  0  0  0  0
   14.7551   -0.0219   12.0085 C   0  0  0  0  0  0  0  0  0  0  0  0
   13.5439    1.1956   12.4766 S   0  0  0  0  0  0  0  0  0  0  0  0
   14.4268    2.6596   12.9379 C   0  0  0  0  0  0  0  0  0  0  0  0
   12.8923    0.6936   13.6749 O   0  0  0  0  0  0  0  0  0  0  0  0
   12.7731    1.5121   11.2894 O   0  0  0  0  0  0  0  0  0  0  0  0
   15.9820    0.3519   11.4821 C   0  0  0  0  0  0  0  0  0  0  0  0
   16.9921   -0.6045   11.3929 C   0  0  0  0  0  0  0  0  0  0  0  0
   17.8243   -4.1498   12.2799 C   0  0  0  0  0  0  0  0  0  0  0  0
   19.0474   -4.7484   13.0024 C   0  0  0  0  0  0  0  0  0  0  0  0
   19.2669   -4.2423   14.3669 N   0  0  0  0  0  0  0  0  0  0  0  0
   15.2672   -2.3828   16.8875 N   0  0  0  0  0  0  0  0  0  0  0  0
   14.9961   -1.3601   15.9025 C   0  0  0  0  0  0  0  0  0  0  0  0
   15.9587   -0.1525   15.9263 C   0  0  0  0  0  0  0  0  0  0  0  0
   16.0489    0.5865   15.0265 O   0  0  0  0  0  0  0  0  0  0  0  0
   16.6310   -0.1232   17.3177 N   0  0  0  0  0  0  0  0  0  0  0  0
   17.4715    0.8605   17.9208 C   0  0  0  0  0  0  0  0  0  0  0  0
   16.6691    1.7763   18.7309 C   0  0  0  0  0  0  0  0  0  0  0  0
   16.0519    2.5319   19.4304 C   0  0  0  0  0  0  0  0  0  0  0  0
   15.0669    3.7268   20.5438 Br  0  0  0  0  0  0  0  0  0  0  0  0
   16.9878   -5.2116   18.1016 H   0  0  0  0  0  0  0  0  0  0  0  0
   16.4874   -3.8120   19.0873 H   0  0  0  0  0  0  0  0  0  0  0  0
   15.2679   -4.7579   18.1975 H   0  0  0  0  0  0  0  0  0  0  0  0
   16.8640   -2.9479   14.5115 H   0  0  0  0  0  0  0  0  0  0  0  0
   19.6346   -2.3440   15.1508 H   0  0  0  0  0  0  0  0  0  0  0  0
   18.5640   -1.0025   13.3729 H   0  0  0  0  0  0  0  0  0  0  0  0
   19.8445   -2.0106   12.7235 H   0  0  0  0  0  0  0  0  0  0  0  0
   15.2756   -3.3298   12.4557 H   0  0  0  0  0  0  0  0  0  0  0  0
   13.5118   -1.6714   12.6370 H   0  0  0  0  0  0  0  0  0  0  0  0
   13.6988    3.3786   13.3222 H   0  0  0  0  0  0  0  0  0  0  0  0
   14.9155    3.0836   12.0594 H   0  0  0  0  0  0  0  0  0  0  0  0
   15.1524    2.4327   13.7156 H   0  0  0  0  0  0  0  0  0  0  0  0
   16.2046    1.3769   11.2074 H   0  0  0  0  0  0  0  0  0  0  0  0
   17.9827   -0.2877   11.0697 H   0  0  0  0  0  0  0  0  0  0  0  0
   16.9441   -4.4319   12.8623 H   0  0  0  0  0  0  0  0  0  0  0  0
   17.7365   -4.5859   11.2790 H   0  0  0  0  0  0  0  0  0  0  0  0
   18.9578   -5.8384   13.0497 H   0  0  0  0  0  0  0  0  0  0  0  0
   19.9493   -4.5415   12.4128 H   0  0  0  0  0  0  0  0  0  0  0  0
   18.6295   -4.7001   15.0265 H   0  0  0  0  0  0  0  0  0  0  0  0
   14.6423   -2.5039   17.6781 H   0  0  0  0  0  0  0  0  0  0  0  0
   13.9870   -0.9687   16.0669 H   0  0  0  0  0  0  0  0  0  0  0  0
   15.0166   -1.8088   14.9112 H   0  0  0  0  0  0  0  0  0  0  0  0
   16.3933   -0.9681   17.8264 H   0  0  0  0  0  0  0  0  0  0  0  0
   18.2157    0.3401   18.5300 H   0  0  0  0  0  0  0  0  0  0  0  0
   17.9849    1.4063   17.1236 H   0  0  0  0  0  0  0  0  0  0  0  0
  1  2  1  0
  2  3  2  3
  3  4  1  0
  4  5  1  0
  5  6  1  0
  6  7  1  0
  7  8  1  0
  8  9  2  0
  9 10  1  0
 10 11  2  0
 11 12  1  0
 12 13  1  0
 12 14  2  0
 12 15  2  0
 11 16  1  0
 16 17  2  0
  7 18  1  0
 18 19  1  0
 19 20  1  0
  2 21  1  0
 21 22  1  0
 22 23  1  0
 23 24  2  0
 23 25  1  0
 25 26  1  0
 26 27  1  0
 27 28  3  0
 28 29  1  0
 20  5  1  0
 17  8  1  0
  1 30  1  0
  1 31  1  0
  1 32  1  0
  4 33  1  0
  5 34  1  0
  6 35  1  0
  6 36  1  0
  9 37  1  0
 10 38  1  0
 13 39  1  0
 13 40  1  0
 13 41  1  0
 16 42  1  0
 17 43  1  0
 18 44  1  0
 18 45  1  0
 19 46  1  0
 19 47  1  0
 20 48  1  0
 21 49  1  0
 22 50  1  0
 22 51  1  0
 25 52  1  0
 26 53  1  0
 26 54  1  0
M  END
>  <Energy>  (660) 
151.35822447221773

>  <compound_id>  (660) 
3635

>  <target_id>  (660) 
1

>  <reference_id>  (660) 
83

>  <inspiration_ids>  (660) 
[124, 83]

>  <energy_score>  (660) 
-33.28785757860439

>  <distance_score>  (660) 
1.8087966090820906

>  <path>  (660) 
/opt/xchem-fragalysis-2/maxwin/BulkDock/SCRATCH/505734/C3635-P83/C3635-P83.minimised.mol

>  <scratch_subdir>  (660) 
/opt/xchem-fragalysis-2/maxwin/BulkDock/SCRATCH/505734/C3635-P83

>  <fragmenstein_runtime>  (660) 
59.5085027217865

>  <fragmenstein_outcome>  (660) 
too moved

>  <fragmenstein_mode>  (660) 
expansion

>  <fragmenstein_error>  (660) 


$$$$
C1240-P124
     RDKit          3D

 50 53  0  0  0  0  0  0  0  0999 V2000
   19.0577   -3.1133   13.3912 C   0  0  0  0  0  0  0  0  0  0  0  0
   17.6581   -3.0709   14.4785 S   0  0  0  0  0  0  0  0  0  0  0  0
   17.5355   -4.3693   15.1197 O   0  0  0  0  0  0  0  0  0  0  0  0
   16.5686   -2.4671   13.7451 O   0  0  0  0  0  0  0  0  0  0  0  0
   18.1495   -1.9580   15.7560 C   0  0  0  0  0  0  0  0  0  0  0  0
   19.0912   -2.4399   16.6469 C   0  0  0  0  0  0  0  0  0  0  0  0
   19.2948   -1.7705   17.8338 C   0  0  0  0  0  0  0  0  0  0  0  0
   18.4769   -0.7054   18.2239 C   0  0  0  0  0  0  0  0  0  0  0  0
   18.4338   -0.4226   19.5900 N   0  0  0  0  0  0  0  0  0  0  0  0
   17.7609    0.7646   20.1519 C   0  0  0  0  0  0  0  0  0  0  0  0
   16.2946    0.4971   20.5890 C   0  0  0  0  0  0  0  0  0  0  0  0
   16.0321   -0.7977   21.2675 N   0  0  0  0  0  0  0  0  0  0  0  0
   16.6418   -1.9362   20.5547 C   0  0  0  0  0  0  0  0  0  0  0  0
   15.8405   -2.0103   19.3604 N   0  0  0  0  0  0  0  0  0  0  0  0
   15.8639   -3.1664   18.5061 C   0  0  0  0  0  0  0  0  0  0  0  0
   14.8217   -4.0889   19.0367 C   0  0  0  0  0  0  0  0  0  0  0  0
   13.6360   -4.2385   18.4459 C   0  0  0  0  0  0  0  0  0  0  0  0
   13.4004   -3.5955   17.1672 C   0  0  0  0  0  0  0  0  0  0  0  0
   12.2052   -3.7797   16.4773 C   0  0  0  0  0  0  0  0  0  0  0  0
   11.9001   -3.0040   15.3672 C   0  0  0  0  0  0  0  0  0  0  0  0
   10.7104   -3.1525   14.7790 F   0  0  0  0  0  0  0  0  0  0  0  0
   12.7877   -2.0589   14.9014 C   0  0  0  0  0  0  0  0  0  0  0  0
   14.0114   -1.9361   15.5484 C   0  0  0  0  0  0  0  0  0  0  0  0
   14.8162   -0.9508   15.1419 F   0  0  0  0  0  0  0  0  0  0  0  0
   14.3513   -2.7305   16.6536 C   0  0  0  0  0  0  0  0  0  0  0  0
   15.6071   -2.6579   17.1815 O   0  0  0  0  0  0  0  0  0  0  0  0
   18.1685   -1.6454   20.4247 C   0  0  0  0  0  0  0  0  0  0  0  0
   17.6735   -0.1142   17.2346 C   0  0  0  0  0  0  0  0  0  0  0  0
   17.5179   -0.7379   15.9855 C   0  0  0  0  0  0  0  0  0  0  0  0
   18.8171   -3.7765   12.5572 H   0  0  0  0  0  0  0  0  0  0  0  0
   19.9255   -3.4998   13.9282 H   0  0  0  0  0  0  0  0  0  0  0  0
   19.2487   -2.1053   13.0181 H   0  0  0  0  0  0  0  0  0  0  0  0
   19.6240   -3.3703   16.4664 H   0  0  0  0  0  0  0  0  0  0  0  0
   20.0359   -2.1711   18.5231 H   0  0  0  0  0  0  0  0  0  0  0  0
   17.8116    1.6211   19.4702 H   0  0  0  0  0  0  0  0  0  0  0  0
   18.3274    1.0586   21.0451 H   0  0  0  0  0  0  0  0  0  0  0  0
   15.9831    1.3008   21.2662 H   0  0  0  0  0  0  0  0  0  0  0  0
   15.6428    0.5879   19.7111 H   0  0  0  0  0  0  0  0  0  0  0  0
   15.0257   -0.9702   21.2697 H   0  0  0  0  0  0  0  0  0  0  0  0
   16.5016   -2.8279   21.1753 H   0  0  0  0  0  0  0  0  0  0  0  0
   16.1332   -1.2531   18.7539 H   0  0  0  0  0  0  0  0  0  0  0  0
   16.8416   -3.6565   18.4786 H   0  0  0  0  0  0  0  0  0  0  0  0
   15.0057   -4.5587   19.9975 H   0  0  0  0  0  0  0  0  0  0  0  0
   12.8462   -4.8029   18.9230 H   0  0  0  0  0  0  0  0  0  0  0  0
   11.4885   -4.5220   16.8003 H   0  0  0  0  0  0  0  0  0  0  0  0
   12.5401   -1.4279   14.0560 H   0  0  0  0  0  0  0  0  0  0  0  0
   18.6722   -2.5495   20.0690 H   0  0  0  0  0  0  0  0  0  0  0  0
   18.5879   -1.4617   21.4239 H   0  0  0  0  0  0  0  0  0  0  0  0
   17.0720    0.7634   17.4489 H   0  0  0  0  0  0  0  0  0  0  0  0
   16.8398   -0.3149   15.2530 H   0  0  0  0  0  0  0  0  0  0  0  0
  1  2  1  0
  2  3  2  0
  2  4  2  0
  2  5  1  0
  5  6  2  0
  6  7  1  0
  7  8  2  0
  8  9  1  0
  9 10  1  0
 10 11  1  0
 11 12  1  0
 12 13  1  0
 13 14  1  0
 14 15  1  0
 15 16  1  0
 16 17  2  0
 17 18  1  0
 18 19  2  0
 19 20  1  0
 20 21  1  0
 20 22  2  0
 22 23  1  0
 23 24  1  0
 23 25  2  0
 25 26  1  0
 13 27  1  0
  8 28  1  0
 28 29  2  0
 29  5  1  0
 27  9  1  0
 26 15  1  0
 25 18  1  0
  1 30  1  0
  1 31  1  0
  1 32  1  0
  6 33  1  0
  7 34  1  0
 10 35  1  0
 10 36  1  0
 11 37  1  0
 11 38  1  0
 12 39  1  0
 13 40  1  0
 14 41  1  0
 15 42  1  0
 16 43  1  0
 17 44  1  0
 19 45  1  0
 22 46  1  0
 27 47  1  0
 27 48  1  0
 28 49  1  0
 29 50  1  0
M  END
>  <Energy>  (661) 
98.788602901953041

>  <compound_id>  (661) 
1240

>  <target_id>  (661) 
1

>  <reference_id>  (661) 
124

>  <inspiration_ids>  (661) 
[124, 86]

>  <energy_score>  (661) 
-24.78168304490751

>  <distance_score>  (661) 
2.0573092792219243

>  <path>  (661) 
/opt/xchem-fragalysis-2/maxwin/BulkDock/SCRATCH/505734/C1240-P124/C1240-P124.minimised.mol

>  <scratch_subdir>  (661) 
/opt/xchem-fragalysis-2/maxwin/BulkDock/SCRATCH/505734/C1240-P124

>  <fragmenstein_runtime>  (661) 
18.915326595306396

>  <fragmenstein_outcome>  (661) 
too moved

>  <fragmenstein_mode>  (661) 
expansion

>  <fragmenstein_error>  (661) 


$$$$
C1240-P86
     RDKit          3D

 50 53  0  0  0  0  0  0  0  0999 V2000
   18.4019   -2.8996   13.1556 C   0  0  0  0  0  0  0  0  0  0  0  0
   17.2166   -3.1167   14.4574 S   0  0  0  0  0  0  0  0  0  0  0  0
   17.4539   -4.3901   15.1133 O   0  0  0  0  0  0  0  0  0  0  0  0
   15.9132   -2.7466   13.9510 O   0  0  0  0  0  0  0  0  0  0  0  0
   17.6505   -1.8851   15.6306 C   0  0  0  0  0  0  0  0  0  0  0  0
   18.7510   -2.1309   16.4316 C   0  0  0  0  0  0  0  0  0  0  0  0
   18.9381   -1.3574   17.5595 C   0  0  0  0  0  0  0  0  0  0  0  0
   17.9836   -0.4195   17.9680 C   0  0  0  0  0  0  0  0  0  0  0  0
   18.0181    0.0120   19.2943 N   0  0  0  0  0  0  0  0  0  0  0  0
   17.0681    1.0234   19.7894 C   0  0  0  0  0  0  0  0  0  0  0  0
   15.7046    0.4071   20.1719 C   0  0  0  0  0  0  0  0  0  0  0  0
   15.7392   -0.7733   21.0504 N   0  0  0  0  0  0  0  0  0  0  0  0
   16.8080   -1.7269   20.7467 C   0  0  0  0  0  0  0  0  0  0  0  0
   16.2518   -2.9402   20.1744 N   0  0  0  0  0  0  0  0  0  0  0  0
   15.8953   -3.0479   18.7657 C   0  0  0  0  0  0  0  0  0  0  0  0
   15.2102   -4.3868   18.7016 C   0  0  0  0  0  0  0  0  0  0  0  0
   14.0326   -4.5495   18.1049 C   0  0  0  0  0  0  0  0  0  0  0  0
   13.5170   -3.4843   17.2860 C   0  0  0  0  0  0  0  0  0  0  0  0
   12.4537   -3.7158   16.4144 C   0  0  0  0  0  0  0  0  0  0  0  0
   11.9733   -2.6849   15.6241 C   0  0  0  0  0  0  0  0  0  0  0  0
   10.9375   -2.9222   14.8128 F   0  0  0  0  0  0  0  0  0  0  0  0
   12.5131   -1.4137   15.7138 C   0  0  0  0  0  0  0  0  0  0  0  0
   13.5426   -1.1867   16.6261 C   0  0  0  0  0  0  0  0  0  0  0  0
   13.9793    0.0717   16.7836 F   0  0  0  0  0  0  0  0  0  0  0  0
   14.0778   -2.2221   17.4000 C   0  0  0  0  0  0  0  0  0  0  0  0
   15.0579   -1.9604   18.3222 O   0  0  0  0  0  0  0  0  0  0  0  0
   18.1629   -1.1000   20.2805 C   0  0  0  0  0  0  0  0  0  0  0  0
   17.0134   -0.0443   17.0269 C   0  0  0  0  0  0  0  0  0  0  0  0
   16.8303   -0.7875   15.8569 C   0  0  0  0  0  0  0  0  0  0  0  0
   18.1857   -3.6246   12.3692 H   0  0  0  0  0  0  0  0  0  0  0  0
   19.4048   -3.0739   13.5493 H   0  0  0  0  0  0  0  0  0  0  0  0
   18.3113   -1.8866   12.7587 H   0  0  0  0  0  0  0  0  0  0  0  0
   19.4230   -2.9633   16.2389 H   0  0  0  0  0  0  0  0  0  0  0  0
   19.8009   -1.5744   18.1850 H   0  0  0  0  0  0  0  0  0  0  0  0
   16.9410    1.8445   19.0744 H   0  0  0  0  0  0  0  0  0  0  0  0
   17.5045    1.4820   20.6866 H   0  0  0  0  0  0  0  0  0  0  0  0
   15.1143    1.1784   20.6809 H   0  0  0  0  0  0  0  0  0  0  0  0
   15.1459    0.1759   19.2639 H   0  0  0  0  0  0  0  0  0  0  0  0
   14.8349   -1.2363   21.0222 H   0  0  0  0  0  0  0  0  0  0  0  0
   17.0816   -2.0932   21.7468 H   0  0  0  0  0  0  0  0  0  0  0  0
   15.4204   -3.1571   20.7170 H   0  0  0  0  0  0  0  0  0  0  0  0
   16.7945   -3.0919   18.1533 H   0  0  0  0  0  0  0  0  0  0  0  0
   15.6577   -5.2134   19.2469 H   0  0  0  0  0  0  0  0  0  0  0  0
   13.4619   -5.4467   18.1937 H   0  0  0  0  0  0  0  0  0  0  0  0
   11.9888   -4.6929   16.3435 H   0  0  0  0  0  0  0  0  0  0  0  0
   12.1196   -0.6061   15.1085 H   0  0  0  0  0  0  0  0  0  0  0  0
   18.8484   -1.8990   19.9813 H   0  0  0  0  0  0  0  0  0  0  0  0
   18.6432   -0.6565   21.1653 H   0  0  0  0  0  0  0  0  0  0  0  0
   16.2999    0.7446   17.2390 H   0  0  0  0  0  0  0  0  0  0  0  0
   15.9959   -0.5597   15.1998 H   0  0  0  0  0  0  0  0  0  0  0  0
  1  2  1  0
  2  3  2  0
  2  4  2  0
  2  5  1  0
  5  6  2  0
  6  7  1  0
  7  8  2  0
  8  9  1  0
  9 10  1  0
 10 11  1  0
 11 12  1  0
 12 13  1  0
 13 14  1  0
 14 15  1  0
 15 16  1  0
 16 17  2  0
 17 18  1  0
 18 19  2  0
 19 20  1  0
 20 21  1  0
 20 22  2  0
 22 23  1  0
 23 24  1  0
 23 25  2  0
 25 26  1  0
 13 27  1  0
  8 28  1  0
 28 29  2  0
 29  5  1  0
 27  9  1  0
 26 15  1  0
 25 18  1  0
  1 30  1  0
  1 31  1  0
  1 32  1  0
  6 33  1  0
  7 34  1  0
 10 35  1  0
 10 36  1  0
 11 37  1  0
 11 38  1  0
 12 39  1  0
 13 40  1  0
 14 41  1  0
 15 42  1  0
 16 43  1  0
 17 44  1  0
 19 45  1  0
 22 46  1  0
 27 47  1  0
 27 48  1  0
 28 49  1  0
 29 50  1  0
M  END
>  <Energy>  (662) 
100.25745053314151

>  <compound_id>  (662) 
1240

>  <target_id>  (662) 
1

>  <reference_id>  (662) 
86

>  <inspiration_ids>  (662) 
[124, 86]

>  <energy_score>  (662) 
-23.312835413719142

>  <distance_score>  (662) 
1.8257973992380208

>  <path>  (662) 
/opt/xchem-fragalysis-2/maxwin/BulkDock/SCRATCH/505734/C1240-P86/C1240-P86.minimised.mol

>  <scratch_subdir>  (662) 
/opt/xchem-fragalysis-2/maxwin/BulkDock/SCRATCH/505734/C1240-P86

>  <fragmenstein_runtime>  (662) 
18.80275535583496

>  <fragmenstein_outcome>  (662) 
too moved

>  <fragmenstein_mode>  (662) 
expansion

>  <fragmenstein_error>  (662) 


$$$$
C3636-P124
     RDKit          3D

 62 64  0  0  0  0  0  0  0  0999 V2000
   18.9235   -3.5165   15.8307 C   0  0  0  0  0  0  0  0  0  0  0  0
   18.0168   -3.0151   16.8124 O   0  0  0  0  0  0  0  0  0  0  0  0
   17.4780   -1.7989   16.5134 C   0  0  0  0  0  0  0  0  0  0  0  0
   17.8389   -1.1152   15.5622 O   0  0  0  0  0  0  0  0  0  0  0  0
   16.3923   -1.3943   17.5386 C   0  0  0  0  0  0  0  0  0  0  0  0
   15.6385   -0.1342   17.0429 C   0  0  0  0  0  0  0  0  0  0  0  0
   16.4030    1.1949   17.0093 C   0  0  0  0  0  0  0  0  0  0  0  0
   16.7430    1.7382   18.3325 N   0  0  0  0  0  0  0  0  0  0  0  0
   17.7010    2.8638   18.2074 C   0  0  0  0  0  0  0  0  0  0  0  0
   17.1073    4.1663   17.6174 C   0  0  0  0  0  0  0  0  0  0  0  0
   15.9286    4.6024   18.3954 N   0  0  0  0  0  0  0  0  0  0  0  0
   15.3783    5.8630   18.1175 C   0  0  0  0  0  0  0  0  0  0  0  0
   14.5215    6.4624   19.0599 C   0  0  0  0  0  0  0  0  0  0  0  0
   13.9458    7.7177   18.8429 C   0  0  0  0  0  0  0  0  0  0  0  0
   14.2387    8.4068   17.6692 C   0  0  0  0  0  0  0  0  0  0  0  0
   13.5052    9.9963   17.3758 S   0  0  0  0  0  0  0  0  0  0  0  0
   14.6886   11.1225   18.0663 C   0  0  0  0  0  0  0  0  0  0  0  0
   12.2928   10.0724   18.1692 O   0  0  0  0  0  0  0  0  0  0  0  0
   13.4673   10.2043   15.9407 O   0  0  0  0  0  0  0  0  0  0  0  0
   15.0806    7.8445   16.7120 C   0  0  0  0  0  0  0  0  0  0  0  0
   15.6511    6.5871   16.9461 C   0  0  0  0  0  0  0  0  0  0  0  0
   14.9161    3.5330   18.5549 C   0  0  0  0  0  0  0  0  0  0  0  0
   15.5699    2.2364   19.0914 C   0  0  0  0  0  0  0  0  0  0  0  0
   17.0169   -1.2146   18.9356 C   0  0  0  0  0  0  0  0  0  0  0  0
   16.9239   -2.5863   19.5794 C   0  0  0  0  0  0  0  0  0  0  0  0
   15.5823   -3.1091   19.1017 C   0  0  0  0  0  0  0  0  0  0  0  0
   15.3292   -2.4517   17.7949 N   0  0  0  0  0  0  0  0  0  0  0  0
   14.8304   -3.4082   16.5012 S   0  0  0  0  0  0  0  0  0  0  0  0
   13.1789   -3.8363   17.0070 C   0  0  0  0  0  0  0  0  0  0  0  0
   15.6492   -4.5997   16.4861 O   0  0  0  0  0  0  0  0  0  0  0  0
   14.7150   -2.5522   15.3430 O   0  0  0  0  0  0  0  0  0  0  0  0
   18.4353   -3.5848   14.8532 H   0  0  0  0  0  0  0  0  0  0  0  0
   19.2287   -4.5216   16.1344 H   0  0  0  0  0  0  0  0  0  0  0  0
   19.8147   -2.8839   15.7776 H   0  0  0  0  0  0  0  0  0  0  0  0
   15.2790   -0.3024   16.0210 H   0  0  0  0  0  0  0  0  0  0  0  0
   14.7332   -0.0101   17.6420 H   0  0  0  0  0  0  0  0  0  0  0  0
   17.3245    1.0549   16.4359 H   0  0  0  0  0  0  0  0  0  0  0  0
   15.8058    1.9134   16.4354 H   0  0  0  0  0  0  0  0  0  0  0  0
   18.5705    2.5546   17.6143 H   0  0  0  0  0  0  0  0  0  0  0  0
   18.0941    3.0820   19.2095 H   0  0  0  0  0  0  0  0  0  0  0  0
   17.8856    4.9385   17.6548 H   0  0  0  0  0  0  0  0  0  0  0  0
   16.8386    4.0031   16.5667 H   0  0  0  0  0  0  0  0  0  0  0  0
   14.3115    5.9531   19.9979 H   0  0  0  0  0  0  0  0  0  0  0  0
   13.2804    8.1398   19.5921 H   0  0  0  0  0  0  0  0  0  0  0  0
   14.3106   12.1378   17.9276 H   0  0  0  0  0  0  0  0  0  0  0  0
   14.8028   10.9119   19.1313 H   0  0  0  0  0  0  0  0  0  0  0  0
   15.6396   11.0063   17.5431 H   0  0  0  0  0  0  0  0  0  0  0  0
   15.2954    8.3640   15.7806 H   0  0  0  0  0  0  0  0  0  0  0  0
   16.2950    6.1785   16.1727 H   0  0  0  0  0  0  0  0  0  0  0  0
   14.4242    3.3392   17.5935 H   0  0  0  0  0  0  0  0  0  0  0  0
   14.1351    3.8217   19.2674 H   0  0  0  0  0  0  0  0  0  0  0  0
   15.9062    2.4267   20.1201 H   0  0  0  0  0  0  0  0  0  0  0  0
   14.8068    1.4579   19.1877 H   0  0  0  0  0  0  0  0  0  0  0  0
   18.0495   -0.8522   18.9071 H   0  0  0  0  0  0  0  0  0  0  0  0
   16.4238   -0.5285   19.5500 H   0  0  0  0  0  0  0  0  0  0  0  0
   16.9795   -2.5379   20.6712 H   0  0  0  0  0  0  0  0  0  0  0  0
   17.7362   -3.2375   19.2422 H   0  0  0  0  0  0  0  0  0  0  0  0
   15.5873   -4.2008   19.0445 H   0  0  0  0  0  0  0  0  0  0  0  0
   14.7836   -2.8092   19.7894 H   0  0  0  0  0  0  0  0  0  0  0  0
   12.5588   -2.9421   16.9551 H   0  0  0  0  0  0  0  0  0  0  0  0
   13.1982   -4.2413   18.0187 H   0  0  0  0  0  0  0  0  0  0  0  0
   12.7895   -4.5854   16.3199 H   0  0  0  0  0  0  0  0  0  0  0  0
  1  2  1  0
  2  3  1  0
  3  4  2  0
  3  5  1  0
  5  6  1  0
  6  7  1  0
  7  8  1  0
  8  9  1  0
  9 10  1  0
 10 11  1  0
 11 12  1  0
 12 13  2  0
 13 14  1  0
 14 15  2  0
 15 16  1  0
 16 17  1  0
 16 18  2  0
 16 19  2  0
 15 20  1  0
 20 21  2  0
 11 22  1  0
 22 23  1  0
  5 24  1  0
 24 25  1  0
 25 26  1  0
 26 27  1  0
 27 28  1  0
 28 29  1  0
 28 30  2  0
 28 31  2  0
 27  5  1  0
 23  8  1  0
 21 12  1  0
  1 32  1  0
  1 33  1  0
  1 34  1  0
  6 35  1  0
  6 36  1  0
  7 37  1  0
  7 38  1  0
  9 39  1  0
  9 40  1  0
 10 41  1  0
 10 42  1  0
 13 43  1  0
 14 44  1  0
 17 45  1  0
 17 46  1  0
 17 47  1  0
 20 48  1  0
 21 49  1  0
 22 50  1  0
 22 51  1  0
 23 52  1  0
 23 53  1  0
 24 54  1  0
 24 55  1  0
 25 56  1  0
 25 57  1  0
 26 58  1  0
 26 59  1  0
 29 60  1  0
 29 61  1  0
 29 62  1  0
M  END
>  <Energy>  (663) 
97.945328541042031

>  <compound_id>  (663) 
3636

>  <target_id>  (663) 
1

>  <reference_id>  (663) 
124

>  <inspiration_ids>  (663) 
[124, 93]

>  <energy_score>  (663) 
-106.97281116853895

>  <distance_score>  (663) 
2.4966297669559445

>  <path>  (663) 
/opt/xchem-fragalysis-2/maxwin/BulkDock/SCRATCH/505734/C3636-P124/C3636-P124.minimised.mol

>  <scratch_subdir>  (663) 
/opt/xchem-fragalysis-2/maxwin/BulkDock/SCRATCH/505734/C3636-P124

>  <fragmenstein_runtime>  (663) 
92.7017822265625

>  <fragmenstein_outcome>  (663) 
too moved

>  <fragmenstein_mode>  (663) 
expansion

>  <fragmenstein_error>  (663) 


$$$$
C3636-P93
     RDKit          3D

 62 64  0  0  0  0  0  0  0  0999 V2000
   20.0078   -5.4823   15.9882 C   0  0  0  0  0  0  0  0  0  0  0  0
   19.3047   -4.3286   16.4465 O   0  0  0  0  0  0  0  0  0  0  0  0
   18.5636   -3.6985   15.4925 C   0  0  0  0  0  0  0  0  0  0  0  0
   18.6042   -3.9915   14.3013 O   0  0  0  0  0  0  0  0  0  0  0  0
   17.7618   -2.5122   16.0784 C   0  0  0  0  0  0  0  0  0  0  0  0
   16.6027   -2.1836   15.0926 C   0  0  0  0  0  0  0  0  0  0  0  0
   15.7059   -0.9673   15.3895 C   0  0  0  0  0  0  0  0  0  0  0  0
   14.7887   -1.1697   16.5169 N   0  0  0  0  0  0  0  0  0  0  0  0
   14.3983    0.1056   17.1470 C   0  0  0  0  0  0  0  0  0  0  0  0
   13.4198    0.9747   16.3282 C   0  0  0  0  0  0  0  0  0  0  0  0
   12.2132    0.2018   15.9535 N   0  0  0  0  0  0  0  0  0  0  0  0
   11.0618    0.8853   15.5548 C   0  0  0  0  0  0  0  0  0  0  0  0
    9.8336    0.2109   15.4468 C   0  0  0  0  0  0  0  0  0  0  0  0
    8.6381    0.8794   15.1604 C   0  0  0  0  0  0  0  0  0  0  0  0
    8.6457    2.2613   14.9865 C   0  0  0  0  0  0  0  0  0  0  0  0
    7.0973    3.0783   14.6938 S   0  0  0  0  0  0  0  0  0  0  0  0
    7.4616    4.5753   13.8206 C   0  0  0  0  0  0  0  0  0  0  0  0
    6.5716    3.4259   16.0037 O   0  0  0  0  0  0  0  0  0  0  0  0
    6.3461    2.2352   13.7842 O   0  0  0  0  0  0  0  0  0  0  0  0
    9.8416    2.9653   15.0705 C   0  0  0  0  0  0  0  0  0  0  0  0
   11.0303    2.2757   15.3502 C   0  0  0  0  0  0  0  0  0  0  0  0
   12.5279   -1.0846   15.2845 C   0  0  0  0  0  0  0  0  0  0  0  0
   13.5603   -1.8971   16.1105 C   0  0  0  0  0  0  0  0  0  0  0  0
   18.7584   -1.3352   16.2189 C   0  0  0  0  0  0  0  0  0  0  0  0
   19.2378   -1.4236   17.6579 C   0  0  0  0  0  0  0  0  0  0  0  0
   17.9870   -1.8313   18.4138 C   0  0  0  0  0  0  0  0  0  0  0  0
   17.2372   -2.6896   17.4757 N   0  0  0  0  0  0  0  0  0  0  0  0
   16.7036   -4.1892   18.0004 S   0  0  0  0  0  0  0  0  0  0  0  0
   15.3530   -3.7439   19.0707 C   0  0  0  0  0  0  0  0  0  0  0  0
   17.7335   -4.7833   18.8257 O   0  0  0  0  0  0  0  0  0  0  0  0
   16.1572   -4.9030   16.8666 O   0  0  0  0  0  0  0  0  0  0  0  0
   19.3160   -6.2063   15.5462 H   0  0  0  0  0  0  0  0  0  0  0  0
   20.4912   -5.9491   16.8507 H   0  0  0  0  0  0  0  0  0  0  0  0
   20.7814   -5.1949   15.2696 H   0  0  0  0  0  0  0  0  0  0  0  0
   17.0459   -1.9989   14.1033 H   0  0  0  0  0  0  0  0  0  0  0  0
   15.9763   -3.0732   14.9566 H   0  0  0  0  0  0  0  0  0  0  0  0
   16.3419   -0.0969   15.5741 H   0  0  0  0  0  0  0  0  0  0  0  0
   15.1524   -0.7148   14.4768 H   0  0  0  0  0  0  0  0  0  0  0  0
   15.2901    0.6929   17.3989 H   0  0  0  0  0  0  0  0  0  0  0  0
   13.9312   -0.1314   18.1109 H   0  0  0  0  0  0  0  0  0  0  0  0
   13.1505    1.8273   16.9633 H   0  0  0  0  0  0  0  0  0  0  0  0
   13.9142    1.3575   15.4270 H   0  0  0  0  0  0  0  0  0  0  0  0
    9.7741   -0.8556   15.6384 H   0  0  0  0  0  0  0  0  0  0  0  0
    7.7027    0.3216   15.1142 H   0  0  0  0  0  0  0  0  0  0  0  0
    6.5125    5.0363   13.5369 H   0  0  0  0  0  0  0  0  0  0  0  0
    8.0105    5.2565   14.4724 H   0  0  0  0  0  0  0  0  0  0  0  0
    8.0347    4.3373   12.9225 H   0  0  0  0  0  0  0  0  0  0  0  0
    9.8874    4.0432   14.9557 H   0  0  0  0  0  0  0  0  0  0  0  0
   11.9395    2.8679   15.4139 H   0  0  0  0  0  0  0  0  0  0  0  0
   12.9126   -0.8847   14.2774 H   0  0  0  0  0  0  0  0  0  0  0  0
   11.6425   -1.7176   15.1710 H   0  0  0  0  0  0  0  0  0  0  0  0
   13.0599   -2.2319   17.0278 H   0  0  0  0  0  0  0  0  0  0  0  0
   13.8168   -2.8153   15.5720 H   0  0  0  0  0  0  0  0  0  0  0  0
   19.5977   -1.3944   15.5171 H   0  0  0  0  0  0  0  0  0  0  0  0
   18.2887   -0.3599   16.0717 H   0  0  0  0  0  0  0  0  0  0  0  0
   19.6516   -0.4783   18.0208 H   0  0  0  0  0  0  0  0  0  0  0  0
   20.0146   -2.1895   17.7592 H   0  0  0  0  0  0  0  0  0  0  0  0
   18.2411   -2.3263   19.3544 H   0  0  0  0  0  0  0  0  0  0  0  0
   17.3697   -0.9567   18.6473 H   0  0  0  0  0  0  0  0  0  0  0  0
   14.5795   -3.2453   18.4907 H   0  0  0  0  0  0  0  0  0  0  0  0
   15.7237   -3.0995   19.8695 H   0  0  0  0  0  0  0  0  0  0  0  0
   14.9504   -4.6641   19.5002 H   0  0  0  0  0  0  0  0  0  0  0  0
  1  2  1  0
  2  3  1  0
  3  4  2  0
  3  5  1  0
  5  6  1  0
  6  7  1  0
  7  8  1  0
  8  9  1  0
  9 10  1  0
 10 11  1  0
 11 12  1  0
 12 13  2  0
 13 14  1  0
 14 15  2  0
 15 16  1  0
 16 17  1  0
 16 18  2  0
 16 19  2  0
 15 20  1  0
 20 21  2  0
 11 22  1  0
 22 23  1  0
  5 24  1  0
 24 25  1  0
 25 26  1  0
 26 27  1  0
 27 28  1  0
 28 29  1  0
 28 30  2  0
 28 31  2  0
 27  5  1  0
 23  8  1  0
 21 12  1  0
  1 32  1  0
  1 33  1  0
  1 34  1  0
  6 35  1  0
  6 36  1  0
  7 37  1  0
  7 38  1  0
  9 39  1  0
  9 40  1  0
 10 41  1  0
 10 42  1  0
 13 43  1  0
 14 44  1  0
 17 45  1  0
 17 46  1  0
 17 47  1  0
 20 48  1  0
 21 49  1  0
 22 50  1  0
 22 51  1  0
 23 52  1  0
 23 53  1  0
 24 54  1  0
 24 55  1  0
 25 56  1  0
 25 57  1  0
 26 58  1  0
 26 59  1  0
 29 60  1  0
 29 61  1  0
 29 62  1  0
M  END
>  <Energy>  (664) 
105.51202912797932

>  <compound_id>  (664) 
3636

>  <target_id>  (664) 
1

>  <reference_id>  (664) 
93

>  <inspiration_ids>  (664) 
[124, 93]

>  <energy_score>  (664) 
-99.40611058160115

>  <distance_score>  (664) 
2.3378301918997795

>  <path>  (664) 
/opt/xchem-fragalysis-2/maxwin/BulkDock/SCRATCH/505734/C3636-P93/C3636-P93.minimised.mol

>  <scratch_subdir>  (664) 
/opt/xchem-fragalysis-2/maxwin/BulkDock/SCRATCH/505734/C3636-P93

>  <fragmenstein_runtime>  (664) 
92.74473166465759

>  <fragmenstein_outcome>  (664) 
too moved

>  <fragmenstein_mode>  (664) 
expansion

>  <fragmenstein_error>  (664) 


$$$$
C3637-P124
     RDKit          3D

 59 62  0  0  0  0  0  0  0  0999 V2000
   11.9145   -0.5986   13.5355 C   0  0  0  0  0  0  0  0  0  0  0  0
   11.5897   -2.1713   14.3370 S   0  0  0  0  0  0  0  0  0  0  0  0
   10.5167   -2.0038   15.3013 O   0  0  0  0  0  0  0  0  0  0  0  0
   11.5784   -3.2590   13.3900 O   0  0  0  0  0  0  0  0  0  0  0  0
   13.0523   -2.3975   15.2734 C   0  0  0  0  0  0  0  0  0  0  0  0
   12.9858   -3.1035   16.4671 C   0  0  0  0  0  0  0  0  0  0  0  0
   13.9621   -2.8470   17.4202 C   0  0  0  0  0  0  0  0  0  0  0  0
   14.9209   -1.8432   17.1925 C   0  0  0  0  0  0  0  0  0  0  0  0
   15.7765   -1.4453   18.2346 N   0  0  0  0  0  0  0  0  0  0  0  0
   15.6051   -0.0047   18.6077 C   0  0  0  0  0  0  0  0  0  0  0  0
   16.8353    0.8860   18.3207 C   0  0  0  0  0  0  0  0  0  0  0  0
   17.4416    0.6015   17.0178 N   0  0  0  0  0  0  0  0  0  0  0  0
   17.9158   -0.8003   16.9950 C   0  0  0  0  0  0  0  0  0  0  0  0
   17.1842   -1.8115   17.9705 C   0  0  0  0  0  0  0  0  0  0  0  0
   17.5620   -3.2015   17.7596 N   0  0  0  0  0  0  0  0  0  0  0  0
   17.2492   -3.7809   16.4704 C   0  0  0  0  0  0  0  0  0  0  0  0
   17.6950   -5.1624   16.4662 N   0  0  0  0  0  0  0  0  0  0  0  0
   18.7093   -5.5900   15.9451 C   0  0  0  0  0  0  0  0  0  0  0  0
   19.7118   -4.7350   15.3151 C   0  0  0  0  0  0  0  0  0  0  0  0
   20.3531   -3.5783   15.8170 C   0  0  0  0  0  0  0  0  0  0  0  0
   21.2360   -3.0550   14.9607 N   0  0  0  0  0  0  0  0  0  0  0  0
   21.1897   -3.8991   13.9159 N   0  0  0  0  0  0  0  0  0  0  0  0
   20.3045   -4.9207   14.0807 C   0  0  0  0  0  0  0  0  0  0  0  0
   19.2195   -7.0173   15.8037 N   0  0  0  0  0  0  0  0  0  0  0  0
   20.1297   -7.4291   17.0330 C   0  0  0  0  0  0  0  0  0  0  0  0
   19.2902   -7.6948   18.2594 C   0  0  0  0  0  0  0  0  0  0  0  0
   18.1304   -8.3726   17.6215 C   0  0  0  0  0  0  0  0  0  0  0  0
   18.5738   -8.3490   16.1767 C   0  0  0  0  0  0  0  0  0  0  0  0
   15.0177   -1.2658   15.9230 C   0  0  0  0  0  0  0  0  0  0  0  0
   14.1462   -1.6170   14.9333 C   0  0  0  0  0  0  0  0  0  0  0  0
   10.9880   -0.1660   13.1646 H   0  0  0  0  0  0  0  0  0  0  0  0
   12.6438   -0.7605   12.7447 H   0  0  0  0  0  0  0  0  0  0  0  0
   12.3701    0.0958   14.2326 H   0  0  0  0  0  0  0  0  0  0  0  0
   12.1551   -3.7668   16.6902 H   0  0  0  0  0  0  0  0  0  0  0  0
   13.9316   -3.3508   18.3832 H   0  0  0  0  0  0  0  0  0  0  0  0
   15.3893    0.0335   19.6821 H   0  0  0  0  0  0  0  0  0  0  0  0
   14.7370    0.4331   18.1065 H   0  0  0  0  0  0  0  0  0  0  0  0
   17.5836    0.7616   19.1138 H   0  0  0  0  0  0  0  0  0  0  0  0
   16.5247    1.9364   18.3525 H   0  0  0  0  0  0  0  0  0  0  0  0
   18.2371    1.2187   16.8560 H   0  0  0  0  0  0  0  0  0  0  0  0
   18.9820   -0.8049   17.2596 H   0  0  0  0  0  0  0  0  0  0  0  0
   17.8733   -1.1349   15.9550 H   0  0  0  0  0  0  0  0  0  0  0  0
   17.6632   -1.6116   18.9408 H   0  0  0  0  0  0  0  0  0  0  0  0
   17.0635   -3.7537   18.4525 H   0  0  0  0  0  0  0  0  0  0  0  0
   17.6600   -3.2133   15.6321 H   0  0  0  0  0  0  0  0  0  0  0  0
   16.1767   -3.8352   16.2935 H   0  0  0  0  0  0  0  0  0  0  0  0
   20.2111   -3.1050   16.7795 H   0  0  0  0  0  0  0  0  0  0  0  0
   21.7978   -3.7190   13.1240 H   0  0  0  0  0  0  0  0  0  0  0  0
   20.1686   -5.6850   13.3294 H   0  0  0  0  0  0  0  0  0  0  0  0
   20.8079   -6.5895   17.2339 H   0  0  0  0  0  0  0  0  0  0  0  0
   20.8023   -8.2601   16.7627 H   0  0  0  0  0  0  0  0  0  0  0  0
   18.9850   -6.7665   18.7536 H   0  0  0  0  0  0  0  0  0  0  0  0
   19.8137   -8.3199   18.9881 H   0  0  0  0  0  0  0  0  0  0  0  0
   17.9679   -9.3912   17.9847 H   0  0  0  0  0  0  0  0  0  0  0  0
   17.2110   -7.8001   17.7750 H   0  0  0  0  0  0  0  0  0  0  0  0
   17.6875   -8.4447   15.5386 H   0  0  0  0  0  0  0  0  0  0  0  0
   19.1994   -9.2096   15.8877 H   0  0  0  0  0  0  0  0  0  0  0  0
   15.7548   -0.5117   15.6823 H   0  0  0  0  0  0  0  0  0  0  0  0
   14.2859   -1.1601   13.9615 H   0  0  0  0  0  0  0  0  0  0  0  0
  1  2  1  0
  2  3  2  0
  2  4  2  0
  2  5  1  0
  5  6  2  0
  6  7  1  0
  7  8  2  0
  8  9  1  0
  9 10  1  0
 10 11  1  0
 11 12  1  0
 12 13  1  0
 13 14  1  0
 14 15  1  0
 15 16  1  0
 16 17  1  0
 17 18  2  3
 18 19  1  0
 19 20  1  0
 20 21  2  0
 21 22  1  0
 22 23  1  0
 18 24  1  0
 24 25  1  0
 25 26  1  0
 26 27  1  0
 27 28  1  0
  8 29  1  0
 29 30  2  0
 30  5  1  0
 14  9  1  0
 23 19  2  0
 28 24  1  0
  1 31  1  0
  1 32  1  0
  1 33  1  0
  6 34  1  0
  7 35  1  0
 10 36  1  0
 10 37  1  0
 11 38  1  0
 11 39  1  0
 12 40  1  0
 13 41  1  0
 13 42  1  0
 14 43  1  0
 15 44  1  0
 16 45  1  0
 16 46  1  0
 20 47  1  0
 22 48  1  0
 23 49  1  0
 25 50  1  0
 25 51  1  0
 26 52  1  0
 26 53  1  0
 27 54  1  0
 27 55  1  0
 28 56  1  0
 28 57  1  0
 29 58  1  0
 30 59  1  0
M  END
>  <Energy>  (665) 
141.29650196947904

>  <compound_id>  (665) 
3637

>  <target_id>  (665) 
1

>  <reference_id>  (665) 
124

>  <inspiration_ids>  (665) 
[124, 97]

>  <energy_score>  (665) 
14.657597265681773

>  <distance_score>  (665) 
3.065935561498367

>  <path>  (665) 
/opt/xchem-fragalysis-2/maxwin/BulkDock/SCRATCH/505734/C3637-P124/C3637-P124.minimised.mol

>  <scratch_subdir>  (665) 
/opt/xchem-fragalysis-2/maxwin/BulkDock/SCRATCH/505734/C3637-P124

>  <fragmenstein_runtime>  (665) 
69.47649931907654

>  <fragmenstein_outcome>  (665) 
too moved

>  <fragmenstein_mode>  (665) 
expansion

>  <fragmenstein_error>  (665) 


$$$$
C3637-P97
     RDKit          3D

 59 62  0  0  0  0  0  0  0  0999 V2000
   13.8190   -0.6291   12.9589 C   0  0  0  0  0  0  0  0  0  0  0  0
   12.2329   -1.0593   13.6409 S   0  0  0  0  0  0  0  0  0  0  0  0
   11.3359    0.0603   13.4118 O   0  0  0  0  0  0  0  0  0  0  0  0
   11.9480   -2.4270   13.2636 O   0  0  0  0  0  0  0  0  0  0  0  0
   12.5981   -1.0923   15.3437 C   0  0  0  0  0  0  0  0  0  0  0  0
   12.8649   -2.3076   15.9586 C   0  0  0  0  0  0  0  0  0  0  0  0
   13.7431   -2.2908   17.0269 C   0  0  0  0  0  0  0  0  0  0  0  0
   14.3261   -1.0815   17.4569 C   0  0  0  0  0  0  0  0  0  0  0  0
   15.4901   -1.1021   18.2532 N   0  0  0  0  0  0  0  0  0  0  0  0
   15.7934    0.1108   19.0652 C   0  0  0  0  0  0  0  0  0  0  0  0
   16.8583    1.0462   18.4227 C   0  0  0  0  0  0  0  0  0  0  0  0
   16.9198    1.0530   16.9499 N   0  0  0  0  0  0  0  0  0  0  0  0
   17.0522   -0.3251   16.4424 C   0  0  0  0  0  0  0  0  0  0  0  0
   16.6844   -1.4986   17.4395 C   0  0  0  0  0  0  0  0  0  0  0  0
   16.7174   -2.7233   16.6436 N   0  0  0  0  0  0  0  0  0  0  0  0
   16.7920   -3.9001   17.4771 C   0  0  0  0  0  0  0  0  0  0  0  0
   18.1418   -4.0361   17.9826 N   0  0  0  0  0  0  0  0  0  0  0  0
   18.4847   -4.9106   18.7593 C   0  0  0  0  0  0  0  0  0  0  0  0
   17.6088   -5.9959   19.1764 C   0  0  0  0  0  0  0  0  0  0  0  0
   17.1622   -6.3256   20.4751 C   0  0  0  0  0  0  0  0  0  0  0  0
   16.3656   -7.3997   20.4929 N   0  0  0  0  0  0  0  0  0  0  0  0
   16.3398   -7.7939   19.2079 N   0  0  0  0  0  0  0  0  0  0  0  0
   17.0692   -6.9872   18.3819 C   0  0  0  0  0  0  0  0  0  0  0  0
   19.8042   -5.1247   19.4810 N   0  0  0  0  0  0  0  0  0  0  0  0
   20.7911   -6.0231   18.6257 C   0  0  0  0  0  0  0  0  0  0  0  0
   21.3738   -5.2343   17.4773 C   0  0  0  0  0  0  0  0  0  0  0  0
   21.5725   -3.9250   18.1543 C   0  0  0  0  0  0  0  0  0  0  0  0
   21.0615   -4.2634   19.5365 C   0  0  0  0  0  0  0  0  0  0  0  0
   13.8084    0.1241   16.9618 C   0  0  0  0  0  0  0  0  0  0  0  0
   12.9457    0.1272   15.8955 C   0  0  0  0  0  0  0  0  0  0  0  0
   14.0966    0.3763   13.2806 H   0  0  0  0  0  0  0  0  0  0  0  0
   13.7597   -0.6529   11.8705 H   0  0  0  0  0  0  0  0  0  0  0  0
   14.5592   -1.3603   13.2917 H   0  0  0  0  0  0  0  0  0  0  0  0
   12.5463   -3.2551   15.5347 H   0  0  0  0  0  0  0  0  0  0  0  0
   14.0623   -3.2317   17.4636 H   0  0  0  0  0  0  0  0  0  0  0  0
   14.8851    0.6683   19.3202 H   0  0  0  0  0  0  0  0  0  0  0  0
   16.1925   -0.2372   20.0266 H   0  0  0  0  0  0  0  0  0  0  0  0
   17.8499    0.7654   18.8013 H   0  0  0  0  0  0  0  0  0  0  0  0
   16.6911    2.0697   18.7776 H   0  0  0  0  0  0  0  0  0  0  0  0
   16.0535    1.4382   16.5859 H   0  0  0  0  0  0  0  0  0  0  0  0
   18.0939   -0.4585   16.1223 H   0  0  0  0  0  0  0  0  0  0  0  0
   16.4482   -0.4029   15.5283 H   0  0  0  0  0  0  0  0  0  0  0  0
   17.5233   -1.5519   18.1490 H   0  0  0  0  0  0  0  0  0  0  0  0
   17.5808   -2.7330   16.1059 H   0  0  0  0  0  0  0  0  0  0  0  0
   16.5410   -4.7520   16.8363 H   0  0  0  0  0  0  0  0  0  0  0  0
   16.0594   -3.8684   18.2915 H   0  0  0  0  0  0  0  0  0  0  0  0
   17.3819   -5.8141   21.4035 H   0  0  0  0  0  0  0  0  0  0  0  0
   15.7862   -8.6102   18.9574 H   0  0  0  0  0  0  0  0  0  0  0  0
   17.1452   -7.1908   17.3242 H   0  0  0  0  0  0  0  0  0  0  0  0
   21.5477   -6.4998   19.2709 H   0  0  0  0  0  0  0  0  0  0  0  0
   20.2086   -6.8644   18.2285 H   0  0  0  0  0  0  0  0  0  0  0  0
   20.6695   -5.1473   16.6435 H   0  0  0  0  0  0  0  0  0  0  0  0
   22.3012   -5.6769   17.1034 H   0  0  0  0  0  0  0  0  0  0  0  0
   20.9737   -3.1395   17.6809 H   0  0  0  0  0  0  0  0  0  0  0  0
   22.6166   -3.5996   18.1716 H   0  0  0  0  0  0  0  0  0  0  0  0
   20.7681   -3.3274   20.0298 H   0  0  0  0  0  0  0  0  0  0  0  0
   21.8280   -4.6870   20.2063 H   0  0  0  0  0  0  0  0  0  0  0  0
   14.1429    1.0873   17.3284 H   0  0  0  0  0  0  0  0  0  0  0  0
   12.6749    1.0687   15.4234 H   0  0  0  0  0  0  0  0  0  0  0  0
  1  2  1  0
  2  3  2  0
  2  4  2  0
  2  5  1  0
  5  6  2  0
  6  7  1  0
  7  8  2  0
  8  9  1  0
  9 10  1  0
 10 11  1  0
 11 12  1  0
 12 13  1  0
 13 14  1  0
 14 15  1  0
 15 16  1  0
 16 17  1  0
 17 18  2  3
 18 19  1  0
 19 20  1  0
 20 21  2  0
 21 22  1  0
 22 23  1  0
 18 24  1  0
 24 25  1  0
 25 26  1  0
 26 27  1  0
 27 28  1  0
  8 29  1  0
 29 30  2  0
 30  5  1  0
 14  9  1  0
 23 19  2  0
 28 24  1  0
  1 31  1  0
  1 32  1  0
  1 33  1  0
  6 34  1  0
  7 35  1  0
 10 36  1  0
 10 37  1  0
 11 38  1  0
 11 39  1  0
 12 40  1  0
 13 41  1  0
 13 42  1  0
 14 43  1  0
 15 44  1  0
 16 45  1  0
 16 46  1  0
 20 47  1  0
 22 48  1  0
 23 49  1  0
 25 50  1  0
 25 51  1  0
 26 52  1  0
 26 53  1  0
 27 54  1  0
 27 55  1  0
 28 56  1  0
 28 57  1  0
 29 58  1  0
 30 59  1  0
M  END
>  <Energy>  (666) 
135.23523668037893

>  <compound_id>  (666) 
3637

>  <target_id>  (666) 
1

>  <reference_id>  (666) 
97

>  <inspiration_ids>  (666) 
[124, 97]

>  <energy_score>  (666) 
8.596331976578796

>  <distance_score>  (666) 
3.592042247309995

>  <path>  (666) 
/opt/xchem-fragalysis-2/maxwin/BulkDock/SCRATCH/505734/C3637-P97/C3637-P97.minimised.mol

>  <scratch_subdir>  (666) 
/opt/xchem-fragalysis-2/maxwin/BulkDock/SCRATCH/505734/C3637-P97

>  <fragmenstein_runtime>  (666) 
56.71804165840149

>  <fragmenstein_outcome>  (666) 
too moved

>  <fragmenstein_mode>  (666) 
expansion

>  <fragmenstein_error>  (666) 


$$$$
C3639-P124
     RDKit          3D

 48 49  0  0  0  0  0  0  0  0999 V2000
   18.1674    0.3801   16.2864 C   0  0  0  0  0  0  0  0  0  0  0  0
   17.2095   -0.4828   17.1063 C   0  0  0  0  0  0  0  0  0  0  0  0
   15.8182    0.1816   17.3852 C   0  0  0  0  0  0  0  0  0  0  0  0
   15.1522    1.0748   16.3389 C   0  0  0  0  0  0  0  0  0  0  0  0
   14.4396    0.4271   15.1363 C   0  0  0  0  0  0  0  0  0  0  0  0
   15.4171    0.0907   14.0278 C   0  0  0  0  0  0  0  0  0  0  0  0
   14.7147   -0.3541   12.7581 C   0  0  0  0  0  0  0  0  0  0  0  0
   15.7572   -0.8305   11.7272 C   0  0  0  0  0  0  0  0  0  0  0  0
   15.1352   -1.0394   10.4109 N   0  0  0  0  0  0  0  0  0  0  0  0
   16.1217   -1.5770    9.5025 N   0  0  0  0  0  0  0  0  0  0  0  0
   13.6870   -1.4268   13.0799 C   0  0  0  0  0  0  0  0  0  0  0  0
   12.7174   -0.9685   14.1696 C   0  0  0  0  0  0  0  0  0  0  0  0
   11.8181   -2.0220   14.6151 N   0  0  0  0  0  0  0  0  0  0  0  0
   12.5201   -2.7398   15.6650 C   0  0  0  0  0  0  0  0  0  0  0  0
   13.8149   -1.9513   15.8858 C   0  0  0  0  0  0  0  0  0  0  0  0
   13.4692   -0.6343   15.3682 N   0  0  0  0  0  0  0  0  0  0  0  0
   17.3612   -2.2513   16.5769 S   0  0  0  0  0  0  0  0  0  0  0  0
   16.2864   -3.1801   17.6380 C   0  0  0  0  0  0  0  0  0  0  0  0
   18.6978   -2.7037   16.9240 O   0  0  0  0  0  0  0  0  0  0  0  0
   16.9244   -2.4493   15.2122 O   0  0  0  0  0  0  0  0  0  0  0  0
   17.8977    0.4069   15.2294 H   0  0  0  0  0  0  0  0  0  0  0  0
   18.1919    1.4067   16.6658 H   0  0  0  0  0  0  0  0  0  0  0  0
   19.1884   -0.0132   16.3435 H   0  0  0  0  0  0  0  0  0  0  0  0
   17.6661   -0.5521   18.1073 H   0  0  0  0  0  0  0  0  0  0  0  0
   15.1163   -0.5349   17.8043 H   0  0  0  0  0  0  0  0  0  0  0  0
   16.0121    0.8629   18.2291 H   0  0  0  0  0  0  0  0  0  0  0  0
   14.4272    1.7030   16.8644 H   0  0  0  0  0  0  0  0  0  0  0  0
   15.8872    1.8009   15.9685 H   0  0  0  0  0  0  0  0  0  0  0  0
   13.8470    1.2677   14.7409 H   0  0  0  0  0  0  0  0  0  0  0  0
   16.1204   -0.6652   14.3384 H   0  0  0  0  0  0  0  0  0  0  0  0
   16.0187    0.9787   13.7910 H   0  0  0  0  0  0  0  0  0  0  0  0
   14.1882    0.5168   12.3413 H   0  0  0  0  0  0  0  0  0  0  0  0
   16.5524   -0.0794   11.6348 H   0  0  0  0  0  0  0  0  0  0  0  0
   16.2202   -1.7608   12.0819 H   0  0  0  0  0  0  0  0  0  0  0  0
   14.7823   -0.1364   10.0780 H   0  0  0  0  0  0  0  0  0  0  0  0
   16.4602   -2.4831    9.8456 H   0  0  0  0  0  0  0  0  0  0  0  0
   15.6914   -1.7982    8.5995 H   0  0  0  0  0  0  0  0  0  0  0  0
   13.1419   -1.6552   12.1817 H   0  0  0  0  0  0  0  0  0  0  0  0
   14.2076   -2.3536   13.3270 H   0  0  0  0  0  0  0  0  0  0  0  0
   12.1278   -0.1252   13.7962 H   0  0  0  0  0  0  0  0  0  0  0  0
   11.5376   -2.6144   13.8372 H   0  0  0  0  0  0  0  0  0  0  0  0
   12.7223   -3.7770   15.4102 H   0  0  0  0  0  0  0  0  0  0  0  0
   11.9045   -2.7445   16.5655 H   0  0  0  0  0  0  0  0  0  0  0  0
   14.0464   -1.9614   16.9467 H   0  0  0  0  0  0  0  0  0  0  0  0
   14.6230   -2.4275   15.3396 H   0  0  0  0  0  0  0  0  0  0  0  0
   15.5378   -3.7035   17.0445 H   0  0  0  0  0  0  0  0  0  0  0  0
   15.8243   -2.5278   18.3770 H   0  0  0  0  0  0  0  0  0  0  0  0
   16.8868   -3.9247   18.1679 H   0  0  0  0  0  0  0  0  0  0  0  0
  1  2  1  0
  2  3  1  0
  3  4  1  0
  4  5  1  0
  5  6  1  0
  6  7  1  0
  7  8  1  0
  8  9  1  0
  9 10  1  0
  7 11  1  0
 11 12  1  0
 12 13  1  0
 13 14  1  0
 14 15  1  0
 15 16  1  0
  2 17  1  0
 17 18  1  0
 17 19  2  0
 17 20  2  0
 16  5  1  0
 16 12  1  0
  1 21  1  0
  1 22  1  0
  1 23  1  0
  2 24  1  0
  3 25  1  0
  3 26  1  0
  4 27  1  0
  4 28  1  0
  5 29  1  0
  6 30  1  0
  6 31  1  0
  7 32  1  0
  8 33  1  0
  8 34  1  0
  9 35  1  0
 10 36  1  0
 10 37  1  0
 11 38  1  0
 11 39  1  0
 12 40  1  0
 13 41  1  0
 14 42  1  0
 14 43  1  0
 15 44  1  0
 15 45  1  0
 18 46  1  0
 18 47  1  0
 18 48  1  0
M  END
>  <Energy>  (667) 
72.743812408896517

>  <compound_id>  (667) 
3639

>  <target_id>  (667) 
1

>  <reference_id>  (667) 
124

>  <inspiration_ids>  (667) 
[124, 103]

>  <energy_score>  (667) 
-17.67859882849234

>  <distance_score>  (667) 
3.0070070569732708

>  <path>  (667) 
/opt/xchem-fragalysis-2/maxwin/BulkDock/SCRATCH/505734/C3639-P124/C3639-P124.minimised.mol

>  <scratch_subdir>  (667) 
/opt/xchem-fragalysis-2/maxwin/BulkDock/SCRATCH/505734/C3639-P124

>  <fragmenstein_runtime>  (667) 
9.793355226516724

>  <fragmenstein_outcome>  (667) 
too moved

>  <fragmenstein_mode>  (667) 
expansion

>  <fragmenstein_error>  (667) 


$$$$
C3639-P103
     RDKit          3D

 48 49  0  0  0  0  0  0  0  0999 V2000
   17.0437    0.8066   14.5867 C   0  0  0  0  0  0  0  0  0  0  0  0
   16.9397    0.2888   16.0243 C   0  0  0  0  0  0  0  0  0  0  0  0
   15.8140    1.0218   16.8545 C   0  0  0  0  0  0  0  0  0  0  0  0
   14.4548    0.4286   17.2003 C   0  0  0  0  0  0  0  0  0  0  0  0
   13.2452    0.5256   16.2504 C   0  0  0  0  0  0  0  0  0  0  0  0
   12.2547   -0.6374   16.4751 C   0  0  0  0  0  0  0  0  0  0  0  0
   12.4814   -1.9412   15.7296 C   0  0  0  0  0  0  0  0  0  0  0  0
   13.6979   -2.7150   16.2247 C   0  0  0  0  0  0  0  0  0  0  0  0
   13.5838   -3.2259   17.5889 N   0  0  0  0  0  0  0  0  0  0  0  0
   12.5916   -4.2268   17.5646 N   0  0  0  0  0  0  0  0  0  0  0  0
   12.6032   -1.5825   14.2705 C   0  0  0  0  0  0  0  0  0  0  0  0
   13.6539   -0.4936   14.0502 C   0  0  0  0  0  0  0  0  0  0  0  0
   13.5512    0.0273   12.7076 N   0  0  0  0  0  0  0  0  0  0  0  0
   12.4717    0.9993   12.7838 C   0  0  0  0  0  0  0  0  0  0  0  0
   12.6218    1.6019   14.1686 C   0  0  0  0  0  0  0  0  0  0  0  0
   13.5642    0.7101   14.8582 N   0  0  0  0  0  0  0  0  0  0  0  0
   17.2769   -1.5246   16.0432 S   0  0  0  0  0  0  0  0  0  0  0  0
   16.9373   -2.0966   17.6801 C   0  0  0  0  0  0  0  0  0  0  0  0
   18.7080   -1.7402   15.9018 O   0  0  0  0  0  0  0  0  0  0  0  0
   16.4185   -2.2264   15.1114 O   0  0  0  0  0  0  0  0  0  0  0  0
   16.2530    0.4222   13.9462 H   0  0  0  0  0  0  0  0  0  0  0  0
   17.0069    1.9004   14.5562 H   0  0  0  0  0  0  0  0  0  0  0  0
   17.9941    0.4998   14.1354 H   0  0  0  0  0  0  0  0  0  0  0  0
   17.8638    0.6580   16.5000 H   0  0  0  0  0  0  0  0  0  0  0  0
   15.6674    2.0306   16.4471 H   0  0  0  0  0  0  0  0  0  0  0  0
   16.2872    1.1968   17.8337 H   0  0  0  0  0  0  0  0  0  0  0  0
   14.5884   -0.5827   17.5579 H   0  0  0  0  0  0  0  0  0  0  0  0
   14.1345    0.9552   18.1144 H   0  0  0  0  0  0  0  0  0  0  0  0
   12.7337    1.4357   16.6000 H   0  0  0  0  0  0  0  0  0  0  0  0
   12.2871   -0.8719   17.5196 H   0  0  0  0  0  0  0  0  0  0  0  0
   11.2439   -0.2816   16.2343 H   0  0  0  0  0  0  0  0  0  0  0  0
   11.5882   -2.5695   15.8399 H   0  0  0  0  0  0  0  0  0  0  0  0
   13.9472   -3.5362   15.5628 H   0  0  0  0  0  0  0  0  0  0  0  0
   14.5393   -2.0465   16.2072 H   0  0  0  0  0  0  0  0  0  0  0  0
   14.4891   -3.6069   17.8769 H   0  0  0  0  0  0  0  0  0  0  0  0
   12.2155   -4.4537   18.4940 H   0  0  0  0  0  0  0  0  0  0  0  0
   12.8546   -5.0758   17.0645 H   0  0  0  0  0  0  0  0  0  0  0  0
   11.6143   -1.2577   13.9267 H   0  0  0  0  0  0  0  0  0  0  0  0
   12.8456   -2.4677   13.6704 H   0  0  0  0  0  0  0  0  0  0  0  0
   14.6360   -0.9448   14.1640 H   0  0  0  0  0  0  0  0  0  0  0  0
   13.3783   -0.7177   12.0443 H   0  0  0  0  0  0  0  0  0  0  0  0
   11.4833    0.5411   12.6836 H   0  0  0  0  0  0  0  0  0  0  0  0
   12.5754    1.7548   11.9992 H   0  0  0  0  0  0  0  0  0  0  0  0
   13.0457    2.6106   14.1223 H   0  0  0  0  0  0  0  0  0  0  0  0
   11.6373    1.6574   14.6488 H   0  0  0  0  0  0  0  0  0  0  0  0
   15.9160   -1.9244   17.9786 H   0  0  0  0  0  0  0  0  0  0  0  0
   17.1473   -3.1686   17.7125 H   0  0  0  0  0  0  0  0  0  0  0  0
   17.6084   -1.5769   18.3683 H   0  0  0  0  0  0  0  0  0  0  0  0
  1  2  1  0
  2  3  1  0
  3  4  1  0
  4  5  1  0
  5  6  1  0
  6  7  1  0
  7  8  1  0
  8  9  1  0
  9 10  1  0
  7 11  1  0
 11 12  1  0
 12 13  1  0
 13 14  1  0
 14 15  1  0
 15 16  1  0
  2 17  1  0
 17 18  1  0
 17 19  2  0
 17 20  2  0
 16  5  1  0
 16 12  1  0
  1 21  1  0
  1 22  1  0
  1 23  1  0
  2 24  1  0
  3 25  1  0
  3 26  1  0
  4 27  1  0
  4 28  1  0
  5 29  1  0
  6 30  1  0
  6 31  1  0
  7 32  1  0
  8 33  1  0
  8 34  1  0
  9 35  1  0
 10 36  1  0
 10 37  1  0
 11 38  1  0
 11 39  1  0
 12 40  1  0
 13 41  1  0
 14 42  1  0
 14 43  1  0
 15 44  1  0
 15 45  1  0
 18 46  1  0
 18 47  1  0
 18 48  1  0
M  END
>  <Energy>  (668) 
82.485463162269639

>  <compound_id>  (668) 
3639

>  <target_id>  (668) 
1

>  <reference_id>  (668) 
103

>  <inspiration_ids>  (668) 
[124, 103]

>  <energy_score>  (668) 
-7.936948075117414

>  <distance_score>  (668) 
2.738746204422205

>  <path>  (668) 
/opt/xchem-fragalysis-2/maxwin/BulkDock/SCRATCH/505734/C3639-P103/C3639-P103.minimised.mol

>  <scratch_subdir>  (668) 
/opt/xchem-fragalysis-2/maxwin/BulkDock/SCRATCH/505734/C3639-P103

>  <fragmenstein_runtime>  (668) 
9.390818357467651

>  <fragmenstein_outcome>  (668) 
too moved

>  <fragmenstein_mode>  (668) 
expansion

>  <fragmenstein_error>  (668) 


$$$$
C3640-P124
     RDKit          3D

 69 73  0  0  0  0  0  0  0  0999 V2000
   14.8340   -3.0317   18.6188 C   0  0  0  0  0  0  0  0  0  0  0  0
   16.1280   -3.0818   17.4157 S   0  0  0  0  0  0  0  0  0  0  0  0
   17.2788   -2.4540   18.0325 O   0  0  0  0  0  0  0  0  0  0  0  0
   16.1305   -4.4849   16.7718 N   0  0  0  0  0  0  0  0  0  0  0  0
   17.0466   -4.7856   15.6483 C   0  0  0  0  0  0  0  0  0  0  0  0
   18.5250   -4.7661   16.0620 C   0  0  0  0  0  0  0  0  0  0  0  0
   19.3011   -3.5823   15.5498 C   0  0  0  0  0  0  0  0  0  0  0  0
   19.9968   -2.7371   16.3346 C   0  0  0  0  0  0  0  0  0  0  0  0
   20.7400   -1.6165   15.7905 C   0  0  0  0  0  0  0  0  0  0  0  0
   21.4372   -0.7596   16.5929 N   0  0  0  0  0  0  0  0  0  0  0  0
   21.5912   -0.7187   18.0344 C   0  0  0  0  0  0  0  0  0  0  0  0
   21.2095   -1.4740   18.8849 O   0  0  0  0  0  0  0  0  0  0  0  0
   22.3983    0.5188   18.4253 C   0  0  0  0  0  0  0  0  0  0  0  0
   21.5695    1.7727   18.4142 C   0  0  0  0  0  0  0  0  0  0  0  0
   20.9287    2.2315   19.5759 C   0  0  0  0  0  0  0  0  0  0  0  0
   20.1383    3.3953   19.5539 C   0  0  0  0  0  0  0  0  0  0  0  0
   19.9678    4.1167   18.3706 C   0  0  0  0  0  0  0  0  0  0  0  0
   20.5928    3.6438   17.2377 C   0  0  0  0  0  0  0  0  0  0  0  0
   21.3667    2.5056   17.2565 C   0  0  0  0  0  0  0  0  0  0  0  0
   21.8664    2.2025   16.0237 O   0  0  0  0  0  0  0  0  0  0  0  0
   21.3496    3.3055   15.2440 C   0  0  0  0  0  0  0  0  0  0  0  0
   20.5231    4.2073   16.0027 O   0  0  0  0  0  0  0  0  0  0  0  0
   20.7191   -1.4204   14.4617 C   0  0  0  0  0  0  0  0  0  0  0  0
   20.0329   -2.2706   13.6338 N   0  0  0  0  0  0  0  0  0  0  0  0
   19.3357   -3.3693   14.0701 C   0  0  0  0  0  0  0  0  0  0  0  0
   18.7731   -4.1263   13.2870 O   0  0  0  0  0  0  0  0  0  0  0  0
   15.6034   -1.9657   16.1456 C   0  0  0  0  0  0  0  0  0  0  0  0
   13.9054   -1.9867   15.6222 C   0  0  0  0  0  0  0  0  0  0  0  0
   13.4177   -0.9639   14.2547 C   0  0  0  0  0  0  0  0  0  0  0  0
   14.7654    0.1000   13.4655 C   0  0  0  0  0  0  0  0  0  0  0  0
   14.4358    0.5717   12.2178 N   0  0  0  0  0  0  0  0  0  0  0  0
   13.6058    1.4611   13.1957 C   0  0  0  0  0  0  0  0  0  0  0  0
   14.1628    1.4366   14.9022 C   0  0  0  0  0  0  0  0  0  0  0  0
   14.8385   -0.1006   15.4045 N   0  0  0  0  0  0  0  0  0  0  0  0
   15.3329   -1.5712   14.0016 C   0  0  0  0  0  0  0  0  0  0  0  0
   14.7711   -0.9750   12.2517 C   0  0  0  0  0  0  0  0  0  0  0  0
   16.4751    0.1603   14.0772 C   0  0  0  0  0  0  0  0  0  0  0  0
   16.8637   -0.9221   15.4299 C   0  0  0  0  0  0  0  0  0  0  0  0
   15.1558   -3.6061   19.4908 H   0  0  0  0  0  0  0  0  0  0  0  0
   14.6674   -1.9927   18.9104 H   0  0  0  0  0  0  0  0  0  0  0  0
   13.9256   -3.4717   18.2050 H   0  0  0  0  0  0  0  0  0  0  0  0
   16.8066   -5.8023   15.3153 H   0  0  0  0  0  0  0  0  0  0  0  0
   16.8223   -4.1252   14.8083 H   0  0  0  0  0  0  0  0  0  0  0  0
   19.0051   -5.6599   15.6396 H   0  0  0  0  0  0  0  0  0  0  0  0
   18.6340   -4.8661   17.1493 H   0  0  0  0  0  0  0  0  0  0  0  0
   19.9851   -2.8833   17.4109 H   0  0  0  0  0  0  0  0  0  0  0  0
   21.8200    0.0935   16.1937 H   0  0  0  0  0  0  0  0  0  0  0  0
   23.2672    0.6218   17.7635 H   0  0  0  0  0  0  0  0  0  0  0  0
   22.8174    0.3531   19.4260 H   0  0  0  0  0  0  0  0  0  0  0  0
   21.0314    1.6813   20.5106 H   0  0  0  0  0  0  0  0  0  0  0  0
   19.6512    3.7301   20.4671 H   0  0  0  0  0  0  0  0  0  0  0  0
   19.3585    5.0127   18.3409 H   0  0  0  0  0  0  0  0  0  0  0  0
   22.1951    3.8659   14.8285 H   0  0  0  0  0  0  0  0  0  0  0  0
   20.7574    2.8975   14.4169 H   0  0  0  0  0  0  0  0  0  0  0  0
   21.2422   -0.6050   13.9744 H   0  0  0  0  0  0  0  0  0  0  0  0
   20.0451   -2.1298   12.6312 H   0  0  0  0  0  0  0  0  0  0  0  0
   13.1990   -2.6834   16.0600 H   0  0  0  0  0  0  0  0  0  0  0  0
   12.4202   -1.0258   13.8279 H   0  0  0  0  0  0  0  0  0  0  0  0
   12.5382    1.1949   13.1512 H   0  0  0  0  0  0  0  0  0  0  0  0
   13.6978    2.5050   12.8644 H   0  0  0  0  0  0  0  0  0  0  0  0
   13.3756    1.7113   15.5950 H   0  0  0  0  0  0  0  0  0  0  0  0
   14.9907    2.1544   14.9952 H   0  0  0  0  0  0  0  0  0  0  0  0
   15.5294    0.1892   16.0976 H   0  0  0  0  0  0  0  0  0  0  0  0
   14.8783   -2.5879   14.0247 H   0  0  0  0  0  0  0  0  0  0  0  0
   16.3911   -1.8757   13.7575 H   0  0  0  0  0  0  0  0  0  0  0  0
   15.6200   -1.1777   11.5741 H   0  0  0  0  0  0  0  0  0  0  0  0
   13.9124   -1.5825   11.9234 H   0  0  0  0  0  0  0  0  0  0  0  0
   17.2298    0.7424   13.5636 H   0  0  0  0  0  0  0  0  0  0  0  0
   17.8702   -0.9487   15.8317 H   0  0  0  0  0  0  0  0  0  0  0  0
  1  2  1  0
  2  3  2  0
  2  4  2  0
  4  5  1  0
  5  6  1  0
  6  7  1  0
  7  8  2  0
  8  9  1  0
  9 10  1  0
 10 11  1  0
 11 12  2  0
 11 13  1  0
 13 14  1  0
 14 15  2  0
 15 16  1  0
 16 17  2  0
 17 18  1  0
 18 19  2  0
 19 20  1  0
 20 21  1  0
 21 22  1  0
  9 23  2  0
 23 24  1  0
 24 25  1  0
 25 26  2  0
  2 27  1  0
 27 28  2  0
 28 29  1  0
 29 30  2  0
 30 31  1  0
 31 32  1  0
 32 33  1  0
 33 34  1  0
 34 35  1  0
 35 36  1  0
 30 37  1  0
 37 38  2  0
 25  7  1  0
 38 27  1  0
 19 14  1  0
 36 31  1  0
 22 18  1  0
  1 39  1  0
  1 40  1  0
  1 41  1  0
  5 42  1  0
  5 43  1  0
  6 44  1  0
  6 45  1  0
  8 46  1  0
 10 47  1  0
 13 48  1  0
 13 49  1  0
 15 50  1  0
 16 51  1  0
 17 52  1  0
 21 53  1  0
 21 54  1  0
 23 55  1  0
 24 56  1  0
 28 57  1  0
 29 58  1  0
 32 59  1  0
 32 60  1  0
 33 61  1  0
 33 62  1  0
 34 63  1  0
 35 64  1  0
 35 65  1  0
 36 66  1  0
 36 67  1  0
 37 68  1  0
 38 69  1  0
M  END
>  <Energy>  (669) 
1189.7852560446365

>  <compound_id>  (669) 
3640

>  <target_id>  (669) 
1

>  <reference_id>  (669) 
124

>  <inspiration_ids>  (669) 
[124, 106]

>  <energy_score>  (669) 
962.6955053104127

>  <distance_score>  (669) 
4.652428512682426

>  <path>  (669) 
/opt/xchem-fragalysis-2/maxwin/BulkDock/SCRATCH/505734/C3640-P124/C3640-P124.minimised.mol

>  <scratch_subdir>  (669) 
/opt/xchem-fragalysis-2/maxwin/BulkDock/SCRATCH/505734/C3640-P124

>  <fragmenstein_runtime>  (669) 
84.37324738502502

>  <fragmenstein_outcome>  (669) 
too moved

>  <fragmenstein_mode>  (669) 
expansion

>  <fragmenstein_error>  (669) 


$$$$
C3640-P106
     RDKit          3D

 69 73  0  0  0  0  0  0  0  0999 V2000
   13.7576   -3.8906   19.3436 C   0  0  0  0  0  0  0  0  0  0  0  0
   14.9703   -3.2633   18.2210 S   0  0  0  0  0  0  0  0  0  0  0  0
   15.8318   -2.3858   18.9914 O   0  0  0  0  0  0  0  0  0  0  0  0
   15.4712   -4.4613   17.3875 N   0  0  0  0  0  0  0  0  0  0  0  0
   16.4230   -4.3002   16.2669 C   0  0  0  0  0  0  0  0  0  0  0  0
   17.8036   -3.7954   16.7110 C   0  0  0  0  0  0  0  0  0  0  0  0
   18.0507   -2.3420   16.4109 C   0  0  0  0  0  0  0  0  0  0  0  0
   18.2948   -1.4083   17.3475 C   0  0  0  0  0  0  0  0  0  0  0  0
   18.5226   -0.0184   17.0070 C   0  0  0  0  0  0  0  0  0  0  0  0
   18.6947    0.8544   18.0378 N   0  0  0  0  0  0  0  0  0  0  0  0
   18.9066    2.2886   18.0442 C   0  0  0  0  0  0  0  0  0  0  0  0
   18.9057    3.0849   17.1455 O   0  0  0  0  0  0  0  0  0  0  0  0
   19.0512    2.7933   19.4863 C   0  0  0  0  0  0  0  0  0  0  0  0
   20.0620    2.0553   20.3244 C   0  0  0  0  0  0  0  0  0  0  0  0
   19.7063    1.4678   21.5500 C   0  0  0  0  0  0  0  0  0  0  0  0
   20.6581    0.7779   22.3234 C   0  0  0  0  0  0  0  0  0  0  0  0
   21.9812    0.6681   21.8911 C   0  0  0  0  0  0  0  0  0  0  0  0
   22.3138    1.2595   20.6923 C   0  0  0  0  0  0  0  0  0  0  0  0
   21.3854    1.9351   19.9334 C   0  0  0  0  0  0  0  0  0  0  0  0
   21.9281    2.4391   18.7919 O   0  0  0  0  0  0  0  0  0  0  0  0
   23.2962    2.0024   18.9169 C   0  0  0  0  0  0  0  0  0  0  0  0
   23.5486    1.2538   20.1232 O   0  0  0  0  0  0  0  0  0  0  0  0
   18.5324    0.3352   15.7133 C   0  0  0  0  0  0  0  0  0  0  0  0
   18.3181   -0.6001   14.7310 N   0  0  0  0  0  0  0  0  0  0  0  0
   18.0757   -1.9293   14.9737 C   0  0  0  0  0  0  0  0  0  0  0  0
   17.8789   -2.7316   14.0686 O   0  0  0  0  0  0  0  0  0  0  0  0
   14.0789   -2.2038   17.1042 C   0  0  0  0  0  0  0  0  0  0  0  0
   12.7166   -2.8919   16.1927 C   0  0  0  0  0  0  0  0  0  0  0  0
   11.9952   -2.0208   14.8255 C   0  0  0  0  0  0  0  0  0  0  0  0
   12.7063   -0.4034   14.4416 C   0  0  0  0  0  0  0  0  0  0  0  0
   12.5632    0.2090   13.2224 N   0  0  0  0  0  0  0  0  0  0  0  0
   11.9800    1.2492   14.2007 C   0  0  0  0  0  0  0  0  0  0  0  0
   11.7149    0.6810   15.8892 C   0  0  0  0  0  0  0  0  0  0  0  0
   12.6492   -0.7542   16.3437 N   0  0  0  0  0  0  0  0  0  0  0  0
   14.0462   -1.5502   15.0063 C   0  0  0  0  0  0  0  0  0  0  0  0
   13.8609   -0.6672   13.3023 C   0  0  0  0  0  0  0  0  0  0  0  0
   14.0994    0.3850   15.4695 C   0  0  0  0  0  0  0  0  0  0  0  0
   14.7575   -0.5789   16.8114 C   0  0  0  0  0  0  0  0  0  0  0  0
   14.2649   -4.5394   20.0622 H   0  0  0  0  0  0  0  0  0  0  0  0
   13.2989   -3.0621   19.8789 H   0  0  0  0  0  0  0  0  0  0  0  0
   13.0196   -4.4691   18.7893 H   0  0  0  0  0  0  0  0  0  0  0  0
   16.5568   -5.2980   15.8318 H   0  0  0  0  0  0  0  0  0  0  0  0
   15.9766   -3.6887   15.4808 H   0  0  0  0  0  0  0  0  0  0  0  0
   17.9783   -4.0117   17.7726 H   0  0  0  0  0  0  0  0  0  0  0  0
   18.5685   -4.3681   16.1686 H   0  0  0  0  0  0  0  0  0  0  0  0
   18.3029   -1.6892   18.3973 H   0  0  0  0  0  0  0  0  0  0  0  0
   18.6848    0.5168   18.9940 H   0  0  0  0  0  0  0  0  0  0  0  0
   19.3377    3.8520   19.4572 H   0  0  0  0  0  0  0  0  0  0  0  0
   18.0563    2.7471   19.9462 H   0  0  0  0  0  0  0  0  0  0  0  0
   18.6854    1.5400   21.9219 H   0  0  0  0  0  0  0  0  0  0  0  0
   20.3611    0.3285   23.2687 H   0  0  0  0  0  0  0  0  0  0  0  0
   22.7240    0.1399   22.4781 H   0  0  0  0  0  0  0  0  0  0  0  0
   23.5434    1.3724   18.0547 H   0  0  0  0  0  0  0  0  0  0  0  0
   23.9481    2.8834   18.9075 H   0  0  0  0  0  0  0  0  0  0  0  0
   18.6998    1.3519   15.3729 H   0  0  0  0  0  0  0  0  0  0  0  0
   18.3398   -0.3213   13.7576 H   0  0  0  0  0  0  0  0  0  0  0  0
   12.4013   -3.9131   16.3941 H   0  0  0  0  0  0  0  0  0  0  0  0
   11.2628   -2.4795   14.1740 H   0  0  0  0  0  0  0  0  0  0  0  0
   10.9909    1.5559   13.8310 H   0  0  0  0  0  0  0  0  0  0  0  0
   12.6128    2.1497   14.2273 H   0  0  0  0  0  0  0  0  0  0  0  0
   11.9945    1.4854   16.5789 H   0  0  0  0  0  0  0  0  0  0  0  0
   10.6670    0.3798   16.0078 H   0  0  0  0  0  0  0  0  0  0  0  0
   12.9305   -0.5446   17.2992 H   0  0  0  0  0  0  0  0  0  0  0  0
   13.9914   -2.6136   14.6822 H   0  0  0  0  0  0  0  0  0  0  0  0
   15.1622   -1.4692   15.1276 H   0  0  0  0  0  0  0  0  0  0  0  0
   14.7649   -0.0611   13.1125 H   0  0  0  0  0  0  0  0  0  0  0  0
   13.8159   -1.4720   12.5474 H   0  0  0  0  0  0  0  0  0  0  0  0
   14.5688    1.3187   15.1694 H   0  0  0  0  0  0  0  0  0  0  0  0
   15.6063   -0.2247   17.3850 H   0  0  0  0  0  0  0  0  0  0  0  0
  1  2  1  0
  2  3  2  0
  2  4  2  0
  4  5  1  0
  5  6  1  0
  6  7  1  0
  7  8  2  0
  8  9  1  0
  9 10  1  0
 10 11  1  0
 11 12  2  0
 11 13  1  0
 13 14  1  0
 14 15  2  0
 15 16  1  0
 16 17  2  0
 17 18  1  0
 18 19  2  0
 19 20  1  0
 20 21  1  0
 21 22  1  0
  9 23  2  0
 23 24  1  0
 24 25  1  0
 25 26  2  0
  2 27  1  0
 27 28  2  0
 28 29  1  0
 29 30  2  0
 30 31  1  0
 31 32  1  0
 32 33  1  0
 33 34  1  0
 34 35  1  0
 35 36  1  0
 30 37  1  0
 37 38  2  0
 25  7  1  0
 38 27  1  0
 19 14  1  0
 36 31  1  0
 22 18  1  0
  1 39  1  0
  1 40  1  0
  1 41  1  0
  5 42  1  0
  5 43  1  0
  6 44  1  0
  6 45  1  0
  8 46  1  0
 10 47  1  0
 13 48  1  0
 13 49  1  0
 15 50  1  0
 16 51  1  0
 17 52  1  0
 21 53  1  0
 21 54  1  0
 23 55  1  0
 24 56  1  0
 28 57  1  0
 29 58  1  0
 32 59  1  0
 32 60  1  0
 33 61  1  0
 33 62  1  0
 34 63  1  0
 35 64  1  0
 35 65  1  0
 36 66  1  0
 36 67  1  0
 37 68  1  0
 38 69  1  0
M  END
>  <Energy>  (670) 
1187.9595148964218

>  <compound_id>  (670) 
3640

>  <target_id>  (670) 
1

>  <reference_id>  (670) 
106

>  <inspiration_ids>  (670) 
[124, 106]

>  <energy_score>  (670) 
960.8697641621967

>  <distance_score>  (670) 
3.1099151114538297

>  <path>  (670) 
/opt/xchem-fragalysis-2/maxwin/BulkDock/SCRATCH/505734/C3640-P106/C3640-P106.minimised.mol

>  <scratch_subdir>  (670) 
/opt/xchem-fragalysis-2/maxwin/BulkDock/SCRATCH/505734/C3640-P106

>  <fragmenstein_runtime>  (670) 
93.74166750907898

>  <fragmenstein_outcome>  (670) 
too moved

>  <fragmenstein_mode>  (670) 
expansion

>  <fragmenstein_error>  (670) 


$$$$
C3642-P124
     RDKit          3D

 65 69  0  0  0  0  0  0  0  0999 V2000
   18.4144   -9.4183   13.0540 C   0  0  0  0  0  0  0  0  0  0  0  0
   19.0022   -7.8668   12.4360 S   0  0  0  0  0  0  0  0  0  0  0  0
   18.1398   -7.4639   11.3386 O   0  0  0  0  0  0  0  0  0  0  0  0
   20.4380   -7.9695   12.2647 O   0  0  0  0  0  0  0  0  0  0  0  0
   18.7285   -6.6405   13.6842 C   0  0  0  0  0  0  0  0  0  0  0  0
   18.1061   -6.9299   14.8921 C   0  0  0  0  0  0  0  0  0  0  0  0
   17.8803   -5.8935   15.8005 C   0  0  0  0  0  0  0  0  0  0  0  0
   18.2750   -4.5633   15.5290 C   0  0  0  0  0  0  0  0  0  0  0  0
   18.2507   -3.5262   16.6536 C   0  0  0  0  0  0  0  0  0  0  0  0
   18.8857   -4.3066   17.7163 O   0  0  0  0  0  0  0  0  0  0  0  0
   19.2492   -2.3782   16.4489 C   0  0  0  0  0  0  0  0  0  0  0  0
   19.4168   -1.5437   17.7318 C   0  0  0  0  0  0  0  0  0  0  0  0
   18.1823   -1.2589   18.4786 N   0  0  0  0  0  0  0  0  0  0  0  0
   16.9699   -1.3722   17.6351 C   0  0  0  0  0  0  0  0  0  0  0  0
   17.0336   -0.2834   16.4753 C   0  0  0  0  0  0  0  0  0  0  0  0
   16.3384    1.0058   16.7340 N   0  0  0  0  0  0  0  0  0  0  0  0
   16.5154    1.3717   18.1426 C   0  0  0  0  0  0  0  0  0  0  0  0
   15.9104    0.3259   19.0930 C   0  0  0  0  0  0  0  0  0  0  0  0
   15.8500   -1.0492   18.5629 N   0  0  0  0  0  0  0  0  0  0  0  0
   16.8442   -2.9620   17.2166 C   0  0  0  0  0  0  0  0  0  0  0  0
   16.7247   -3.6429   18.5298 O   0  0  0  0  0  0  0  0  0  0  0  0
   15.5839   -3.3931   16.5967 N   0  0  0  0  0  0  0  0  0  0  0  0
   15.5143   -3.1036   15.2477 N   0  0  0  0  0  0  0  0  0  0  0  0
   14.6500   -2.1169   14.7312 C   0  0  0  0  0  0  0  0  0  0  0  0
   14.1148   -1.1386   15.5626 C   0  0  0  0  0  0  0  0  0  0  0  0
   13.6173    0.0500   15.0500 C   0  0  0  0  0  0  0  0  0  0  0  0
   13.5009    0.2031   13.7059 C   0  0  0  0  0  0  0  0  0  0  0  0
   13.9798   -0.7687   12.8681 C   0  0  0  0  0  0  0  0  0  0  0  0
   14.5469   -1.9322   13.3465 C   0  0  0  0  0  0  0  0  0  0  0  0
   14.0017   -0.3687   11.5547 O   0  0  0  0  0  0  0  0  0  0  0  0
   13.7453    1.0597   11.6397 C   0  0  0  0  0  0  0  0  0  0  0  0
   12.9993    1.3542   12.9417 C   0  0  0  0  0  0  0  0  0  0  0  0
   18.8517   -4.2968   14.2770 C   0  0  0  0  0  0  0  0  0  0  0  0
   19.0948   -5.3280   13.3691 C   0  0  0  0  0  0  0  0  0  0  0  0
   18.5709  -10.1687   12.2754 H   0  0  0  0  0  0  0  0  0  0  0  0
   17.3487   -9.3448   13.2759 H   0  0  0  0  0  0  0  0  0  0  0  0
   18.9862   -9.6925   13.9424 H   0  0  0  0  0  0  0  0  0  0  0  0
   17.8114   -7.9358   15.1698 H   0  0  0  0  0  0  0  0  0  0  0  0
   17.4648   -6.1444   16.7749 H   0  0  0  0  0  0  0  0  0  0  0  0
   18.3122   -4.1892   18.5007 H   0  0  0  0  0  0  0  0  0  0  0  0
   18.9569   -1.7528   15.6009 H   0  0  0  0  0  0  0  0  0  0  0  0
   20.2456   -2.7717   16.2022 H   0  0  0  0  0  0  0  0  0  0  0  0
   19.9064   -0.5962   17.4775 H   0  0  0  0  0  0  0  0  0  0  0  0
   20.1116   -2.0524   18.4117 H   0  0  0  0  0  0  0  0  0  0  0  0
   18.0846   -1.9645   19.2111 H   0  0  0  0  0  0  0  0  0  0  0  0
   18.0656    0.0240   16.2804 H   0  0  0  0  0  0  0  0  0  0  0  0
   16.7006   -0.6881   15.5215 H   0  0  0  0  0  0  0  0  0  0  0  0
   15.3478    0.8311   16.6114 H   0  0  0  0  0  0  0  0  0  0  0  0
   17.5831    1.5107   18.3519 H   0  0  0  0  0  0  0  0  0  0  0  0
   16.0384    2.3419   18.3213 H   0  0  0  0  0  0  0  0  0  0  0  0
   14.8825    0.6169   19.3353 H   0  0  0  0  0  0  0  0  0  0  0  0
   16.4668    0.3376   20.0381 H   0  0  0  0  0  0  0  0  0  0  0  0
   15.8967   -1.7143   19.3351 H   0  0  0  0  0  0  0  0  0  0  0  0
   16.1332   -4.3865   18.3083 H   0  0  0  0  0  0  0  0  0  0  0  0
   14.8257   -2.9671   17.1334 H   0  0  0  0  0  0  0  0  0  0  0  0
   15.7988   -3.8331   14.5828 H   0  0  0  0  0  0  0  0  0  0  0  0
   14.2526   -1.1986   16.6302 H   0  0  0  0  0  0  0  0  0  0  0  0
   13.4162    0.9065   15.6739 H   0  0  0  0  0  0  0  0  0  0  0  0
   15.0122   -2.6179   12.6451 H   0  0  0  0  0  0  0  0  0  0  0  0
   14.7165    1.5716   11.6133 H   0  0  0  0  0  0  0  0  0  0  0  0
   13.1726    1.3858   10.7665 H   0  0  0  0  0  0  0  0  0  0  0  0
   11.9155    1.2841   12.8059 H   0  0  0  0  0  0  0  0  0  0  0  0
   13.2706    2.3293   13.3535 H   0  0  0  0  0  0  0  0  0  0  0  0
   19.1715   -3.2962   13.9982 H   0  0  0  0  0  0  0  0  0  0  0  0
   19.5691   -5.1030   12.4148 H   0  0  0  0  0  0  0  0  0  0  0  0
  1  2  1  0
  2  3  2  0
  2  4  2  0
  2  5  1  0
  5  6  2  0
  6  7  1  0
  7  8  2  0
  8  9  1  0
  9 10  1  0
  9 11  1  0
 11 12  1  0
 12 13  1  0
 13 14  1  0
 14 15  1  0
 15 16  1  0
 16 17  1  0
 17 18  1  0
 18 19  1  0
 14 20  1  0
 20 21  1  0
 20 22  1  0
 22 23  1  0
 23 24  1  0
 24 25  2  0
 25 26  1  0
 26 27  2  0
 27 28  1  0
 28 29  2  0
 28 30  1  0
 30 31  1  0
 31 32  1  0
  8 33  1  0
 33 34  2  0
 34  5  1  0
 20  9  1  0
 29 24  1  0
 19 14  1  0
 32 27  1  0
  1 35  1  0
  1 36  1  0
  1 37  1  0
  6 38  1  0
  7 39  1  0
 10 40  1  0
 11 41  1  0
 11 42  1  0
 12 43  1  0
 12 44  1  0
 13 45  1  0
 15 46  1  0
 15 47  1  0
 16 48  1  0
 17 49  1  0
 17 50  1  0
 18 51  1  0
 18 52  1  0
 19 53  1  0
 21 54  1  0
 22 55  1  0
 23 56  1  0
 25 57  1  0
 26 58  1  0
 29 59  1  0
 31 60  1  0
 31 61  1  0
 32 62  1  0
 32 63  1  0
 33 64  1  0
 34 65  1  0
M  END
>  <Energy>  (671) 
298.55298088878988

>  <compound_id>  (671) 
3642

>  <target_id>  (671) 
1

>  <reference_id>  (671) 
124

>  <inspiration_ids>  (671) 
[124, 113]

>  <energy_score>  (671) 
-101.47745555991759

>  <distance_score>  (671) 
2.7608479998750535

>  <path>  (671) 
/opt/xchem-fragalysis-2/maxwin/BulkDock/SCRATCH/505734/C3642-P124/C3642-P124.minimised.mol

>  <scratch_subdir>  (671) 
/opt/xchem-fragalysis-2/maxwin/BulkDock/SCRATCH/505734/C3642-P124

>  <fragmenstein_runtime>  (671) 
70.35299110412598

>  <fragmenstein_outcome>  (671) 
too moved

>  <fragmenstein_mode>  (671) 
expansion

>  <fragmenstein_error>  (671) 


$$$$
C3642-P113
     RDKit          3D

 65 69  0  0  0  0  0  0  0  0999 V2000
   19.7028   -3.7890    8.8380 C   0  0  0  0  0  0  0  0  0  0  0  0
   18.9422   -2.3130    9.4537 S   0  0  0  0  0  0  0  0  0  0  0  0
   19.9300   -1.2526    9.3749 O   0  0  0  0  0  0  0  0  0  0  0  0
   17.6614   -2.1708    8.7786 O   0  0  0  0  0  0  0  0  0  0  0  0
   18.6246   -2.5641   11.1877 C   0  0  0  0  0  0  0  0  0  0  0  0
   19.1697   -3.6359   11.8888 C   0  0  0  0  0  0  0  0  0  0  0  0
   18.9536   -3.7400   13.2700 C   0  0  0  0  0  0  0  0  0  0  0  0
   18.1847   -2.7948   13.9885 C   0  0  0  0  0  0  0  0  0  0  0  0
   18.0743   -2.9073   15.5367 C   0  0  0  0  0  0  0  0  0  0  0  0
   18.3619   -4.3043   15.8552 O   0  0  0  0  0  0  0  0  0  0  0  0
   19.2793   -2.1061   16.0658 C   0  0  0  0  0  0  0  0  0  0  0  0
   19.1826   -1.7432   17.5385 C   0  0  0  0  0  0  0  0  0  0  0  0
   17.9316   -1.1528   17.9515 N   0  0  0  0  0  0  0  0  0  0  0  0
   16.7882   -1.1084   17.0357 C   0  0  0  0  0  0  0  0  0  0  0  0
   15.5251   -0.8680   17.9555 C   0  0  0  0  0  0  0  0  0  0  0  0
   15.5979    0.3785   18.7555 N   0  0  0  0  0  0  0  0  0  0  0  0
   15.6294    1.4923   17.8063 C   0  0  0  0  0  0  0  0  0  0  0  0
   16.8065    1.3656   16.8248 C   0  0  0  0  0  0  0  0  0  0  0  0
   16.9573    0.0573   16.1476 N   0  0  0  0  0  0  0  0  0  0  0  0
   16.6980   -2.5529   16.3187 C   0  0  0  0  0  0  0  0  0  0  0  0
   16.5635   -3.5679   17.3681 O   0  0  0  0  0  0  0  0  0  0  0  0
   15.5742   -2.7338   15.4028 N   0  0  0  0  0  0  0  0  0  0  0  0
   14.3432   -2.7929   16.0544 N   0  0  0  0  0  0  0  0  0  0  0  0
   13.2531   -2.1111   15.4850 C   0  0  0  0  0  0  0  0  0  0  0  0
   12.2106   -1.7376   16.3322 C   0  0  0  0  0  0  0  0  0  0  0  0
   11.3289   -0.7276   15.9596 C   0  0  0  0  0  0  0  0  0  0  0  0
   11.5215   -0.1006   14.7535 C   0  0  0  0  0  0  0  0  0  0  0  0
   12.4822   -0.5335   13.8742 C   0  0  0  0  0  0  0  0  0  0  0  0
   13.3187   -1.5656   14.1940 C   0  0  0  0  0  0  0  0  0  0  0  0
   12.5576    0.1991   12.7177 O   0  0  0  0  0  0  0  0  0  0  0  0
   11.7582    1.3625   13.0215 C   0  0  0  0  0  0  0  0  0  0  0  0
   10.7694    0.9926   14.1232 C   0  0  0  0  0  0  0  0  0  0  0  0
   17.6597   -1.7184   13.2506 C   0  0  0  0  0  0  0  0  0  0  0  0
   17.8628   -1.6096   11.8647 C   0  0  0  0  0  0  0  0  0  0  0  0
   19.8163   -3.6815    7.7566 H   0  0  0  0  0  0  0  0  0  0  0  0
   19.0688   -4.6484    9.0544 H   0  0  0  0  0  0  0  0  0  0  0  0
   20.6879   -3.9050    9.2937 H   0  0  0  0  0  0  0  0  0  0  0  0
   19.7876   -4.3890   11.4119 H   0  0  0  0  0  0  0  0  0  0  0  0
   19.4171   -4.5736   13.7986 H   0  0  0  0  0  0  0  0  0  0  0  0
   17.5312   -4.6341   16.2612 H   0  0  0  0  0  0  0  0  0  0  0  0
   19.4270   -1.1805   15.4960 H   0  0  0  0  0  0  0  0  0  0  0  0
   20.2056   -2.6808   15.9230 H   0  0  0  0  0  0  0  0  0  0  0  0
   20.0004   -1.0561   17.7854 H   0  0  0  0  0  0  0  0  0  0  0  0
   19.3544   -2.6422   18.1419 H   0  0  0  0  0  0  0  0  0  0  0  0
   17.9902   -0.3147   18.5263 H   0  0  0  0  0  0  0  0  0  0  0  0
   15.3977   -1.6991   18.6589 H   0  0  0  0  0  0  0  0  0  0  0  0
   14.6141   -0.7973   17.3646 H   0  0  0  0  0  0  0  0  0  0  0  0
   14.7552    0.4490   19.3248 H   0  0  0  0  0  0  0  0  0  0  0  0
   14.6845    1.5418   17.2502 H   0  0  0  0  0  0  0  0  0  0  0  0
   15.7222    2.4322   18.3613 H   0  0  0  0  0  0  0  0  0  0  0  0
   17.7378    1.5934   17.3590 H   0  0  0  0  0  0  0  0  0  0  0  0
   16.7047    2.1347   16.0507 H   0  0  0  0  0  0  0  0  0  0  0  0
   17.8820    0.0389   15.7342 H   0  0  0  0  0  0  0  0  0  0  0  0
   17.1124   -3.2191   18.0995 H   0  0  0  0  0  0  0  0  0  0  0  0
   15.6092   -1.9282   14.7797 H   0  0  0  0  0  0  0  0  0  0  0  0
   14.1635   -3.5408   16.7249 H   0  0  0  0  0  0  0  0  0  0  0  0
   12.1631   -2.1885   17.3138 H   0  0  0  0  0  0  0  0  0  0  0  0
   10.5243   -0.3902   16.5891 H   0  0  0  0  0  0  0  0  0  0  0  0
   14.0692   -1.8713   13.4736 H   0  0  0  0  0  0  0  0  0  0  0  0
   12.4368    2.1618   13.3468 H   0  0  0  0  0  0  0  0  0  0  0  0
   11.2472    1.7007   12.1145 H   0  0  0  0  0  0  0  0  0  0  0  0
    9.8679    0.5638   13.6853 H   0  0  0  0  0  0  0  0  0  0  0  0
   10.5339    1.8325   14.7797 H   0  0  0  0  0  0  0  0  0  0  0  0
   17.0999   -0.9213   13.7297 H   0  0  0  0  0  0  0  0  0  0  0  0
   17.4460   -0.7592   11.3276 H   0  0  0  0  0  0  0  0  0  0  0  0
  1  2  1  0
  2  3  2  0
  2  4  2  0
  2  5  1  0
  5  6  2  0
  6  7  1  0
  7  8  2  0
  8  9  1  0
  9 10  1  0
  9 11  1  0
 11 12  1  0
 12 13  1  0
 13 14  1  0
 14 15  1  0
 15 16  1  0
 16 17  1  0
 17 18  1  0
 18 19  1  0
 14 20  1  0
 20 21  1  0
 20 22  1  0
 22 23  1  0
 23 24  1  0
 24 25  2  0
 25 26  1  0
 26 27  2  0
 27 28  1  0
 28 29  2  0
 28 30  1  0
 30 31  1  0
 31 32  1  0
  8 33  1  0
 33 34  2  0
 34  5  1  0
 20  9  1  0
 29 24  1  0
 19 14  1  0
 32 27  1  0
  1 35  1  0
  1 36  1  0
  1 37  1  0
  6 38  1  0
  7 39  1  0
 10 40  1  0
 11 41  1  0
 11 42  1  0
 12 43  1  0
 12 44  1  0
 13 45  1  0
 15 46  1  0
 15 47  1  0
 16 48  1  0
 17 49  1  0
 17 50  1  0
 18 51  1  0
 18 52  1  0
 19 53  1  0
 21 54  1  0
 22 55  1  0
 23 56  1  0
 25 57  1  0
 26 58  1  0
 29 59  1  0
 31 60  1  0
 31 61  1  0
 32 62  1  0
 32 63  1  0
 33 64  1  0
 34 65  1  0
M  END
>  <Energy>  (672) 
284.02248153909312

>  <compound_id>  (672) 
3642

>  <target_id>  (672) 
1

>  <reference_id>  (672) 
113

>  <inspiration_ids>  (672) 
[124, 113]

>  <energy_score>  (672) 
-116.00795490961815

>  <distance_score>  (672) 
2.2636724027181305

>  <path>  (672) 
/opt/xchem-fragalysis-2/maxwin/BulkDock/SCRATCH/505734/C3642-P113/C3642-P113.minimised.mol

>  <scratch_subdir>  (672) 
/opt/xchem-fragalysis-2/maxwin/BulkDock/SCRATCH/505734/C3642-P113

>  <fragmenstein_runtime>  (672) 
56.36621618270874

>  <fragmenstein_outcome>  (672) 
too moved

>  <fragmenstein_mode>  (672) 
expansion

>  <fragmenstein_error>  (672) 


$$$$
C2574-P124
     RDKit          3D

 68 71  0  0  0  0  0  0  0  0999 V2000
   12.8978    2.9335   11.8273 C   0  0  0  0  0  0  0  0  0  0  0  0
   13.0960    4.2706   12.9787 S   0  0  0  0  0  0  0  0  0  0  0  0
   13.6892    5.3808   12.2580 O   0  0  0  0  0  0  0  0  0  0  0  0
   13.6869    3.6852   14.2860 N   0  0  0  0  0  0  0  0  0  0  0  0
   14.4041    4.6389   15.1559 C   0  0  0  0  0  0  0  0  0  0  0  0
   14.6752    4.0180   16.5282 C   0  0  0  0  0  0  0  0  0  0  0  0
   15.4601    5.0055   17.3992 C   0  0  0  0  0  0  0  0  0  0  0  0
   15.6508    4.5826   18.8603 C   0  0  0  0  0  0  0  0  0  0  0  0
   16.4382    3.2819   19.0351 C   0  0  0  0  0  0  0  0  0  0  0  0
   15.5534    2.0358   19.1602 C   0  0  0  0  0  0  0  0  0  0  0  0
   14.4093    2.1375   19.4928 O   0  0  0  0  0  0  0  0  0  0  0  0
   16.3401    0.8776   18.8570 N   0  0  0  0  0  0  0  0  0  0  0  0
   15.9765   -0.5154   18.7647 C   0  0  0  0  0  0  0  0  0  0  0  0
   15.6662   -0.9126   17.3336 C   0  0  0  0  0  0  0  0  0  0  0  0
   16.0674   -2.1638   16.8581 C   0  0  0  0  0  0  0  0  0  0  0  0
   15.7713   -2.5322   15.5426 C   0  0  0  0  0  0  0  0  0  0  0  0
   15.0467   -1.6205   14.7597 C   0  0  0  0  0  0  0  0  0  0  0  0
   14.5475   -1.5841   13.4324 C   0  0  0  0  0  0  0  0  0  0  0  0
   13.9002   -0.3794   13.2624 C   0  0  0  0  0  0  0  0  0  0  0  0
   14.0002    0.3303   14.4331 N   0  0  0  0  0  0  0  0  0  0  0  0
   14.6941   -0.4141   15.3481 C   0  0  0  0  0  0  0  0  0  0  0  0
   14.9726   -0.0103   16.5958 N   0  0  0  0  0  0  0  0  0  0  0  0
   11.4023    4.7247   13.3052 C   0  0  0  0  0  0  0  0  0  0  0  0
   10.7356    5.5782   12.4321 C   0  0  0  0  0  0  0  0  0  0  0  0
    9.3787    5.8626   12.6446 C   0  0  0  0  0  0  0  0  0  0  0  0
    8.6541    5.3084   13.7142 C   0  0  0  0  0  0  0  0  0  0  0  0
    7.2888    5.4966   13.8705 N   0  0  0  0  0  0  0  0  0  0  0  0
    6.6767    5.3851   15.2125 C   0  0  0  0  0  0  0  0  0  0  0  0
    5.2448    5.9627   15.2586 C   0  0  0  0  0  0  0  0  0  0  0  0
    4.3627    5.4551   14.1990 N   0  0  0  0  0  0  0  0  0  0  0  0
    5.0029    5.5869   12.8757 C   0  0  0  0  0  0  0  0  0  0  0  0
    6.4517    6.1374   12.8416 C   0  0  0  0  0  0  0  0  0  0  0  0
    9.3838    4.5020   14.6052 C   0  0  0  0  0  0  0  0  0  0  0  0
   10.7386    4.2118   14.4117 C   0  0  0  0  0  0  0  0  0  0  0  0
   12.4240    3.3147   10.9201 H   0  0  0  0  0  0  0  0  0  0  0  0
   13.8866    2.5392   11.5840 H   0  0  0  0  0  0  0  0  0  0  0  0
   12.2758    2.1588   12.2789 H   0  0  0  0  0  0  0  0  0  0  0  0
   15.3498    4.9219   14.6785 H   0  0  0  0  0  0  0  0  0  0  0  0
   13.8071    5.5499   15.2879 H   0  0  0  0  0  0  0  0  0  0  0  0
   13.7258    3.7617   17.0143 H   0  0  0  0  0  0  0  0  0  0  0  0
   15.2406    3.0863   16.4103 H   0  0  0  0  0  0  0  0  0  0  0  0
   14.9434    5.9739   17.3987 H   0  0  0  0  0  0  0  0  0  0  0  0
   16.4439    5.1814   16.9458 H   0  0  0  0  0  0  0  0  0  0  0  0
   14.6771    4.5422   19.3607 H   0  0  0  0  0  0  0  0  0  0  0  0
   16.2137    5.3852   19.3544 H   0  0  0  0  0  0  0  0  0  0  0  0
   17.0068    3.3383   19.9722 H   0  0  0  0  0  0  0  0  0  0  0  0
   17.1595    3.1716   18.2177 H   0  0  0  0  0  0  0  0  0  0  0  0
   17.2496    1.1735   18.5303 H   0  0  0  0  0  0  0  0  0  0  0  0
   16.8182   -1.0930   19.1587 H   0  0  0  0  0  0  0  0  0  0  0  0
   15.0907   -0.6920   19.3831 H   0  0  0  0  0  0  0  0  0  0  0  0
   16.6158   -2.8507   17.4954 H   0  0  0  0  0  0  0  0  0  0  0  0
   16.0863   -3.4899   15.1412 H   0  0  0  0  0  0  0  0  0  0  0  0
   14.6534   -2.3517   12.6764 H   0  0  0  0  0  0  0  0  0  0  0  0
   13.3914    0.0395   12.4091 H   0  0  0  0  0  0  0  0  0  0  0  0
   13.6476    1.2670   14.6130 H   0  0  0  0  0  0  0  0  0  0  0  0
   11.2512    6.0238   11.5844 H   0  0  0  0  0  0  0  0  0  0  0  0
    8.9003    6.5428   11.9449 H   0  0  0  0  0  0  0  0  0  0  0  0
    6.6342    4.3297   15.5064 H   0  0  0  0  0  0  0  0  0  0  0  0
    7.2835    5.9221   15.9520 H   0  0  0  0  0  0  0  0  0  0  0  0
    5.2856    7.0571   15.1905 H   0  0  0  0  0  0  0  0  0  0  0  0
    4.7959    5.7342   16.2319 H   0  0  0  0  0  0  0  0  0  0  0  0
    4.2115    4.4496   14.3622 H   0  0  0  0  0  0  0  0  0  0  0  0
    4.9996    4.5965   12.4032 H   0  0  0  0  0  0  0  0  0  0  0  0
    4.3701    6.2241   12.2476 H   0  0  0  0  0  0  0  0  0  0  0  0
    6.8332    5.9483   11.8335 H   0  0  0  0  0  0  0  0  0  0  0  0
    6.4486    7.2225   13.0013 H   0  0  0  0  0  0  0  0  0  0  0  0
    8.9016    4.0446   15.4648 H   0  0  0  0  0  0  0  0  0  0  0  0
   11.2531    3.5691   15.1209 H   0  0  0  0  0  0  0  0  0  0  0  0
  1  2  1  0
  2  3  2  0
  2  4  2  0
  4  5  1  0
  5  6  1  0
  6  7  1  0
  7  8  1  0
  8  9  1  0
  9 10  1  0
 10 11  2  0
 10 12  1  0
 12 13  1  0
 13 14  1  0
 14 15  2  0
 15 16  1  0
 16 17  2  0
 17 18  1  0
 18 19  2  0
 19 20  1  0
 20 21  1  0
 21 22  2  0
  2 23  1  0
 23 24  2  0
 24 25  1  0
 25 26  2  0
 26 27  1  0
 27 28  1  0
 28 29  1  0
 29 30  1  0
 30 31  1  0
 31 32  1  0
 26 33  1  0
 33 34  2  0
 22 14  1  0
 34 23  1  0
 21 17  1  0
 32 27  1  0
  1 35  1  0
  1 36  1  0
  1 37  1  0
  5 38  1  0
  5 39  1  0
  6 40  1  0
  6 41  1  0
  7 42  1  0
  7 43  1  0
  8 44  1  0
  8 45  1  0
  9 46  1  0
  9 47  1  0
 12 48  1  0
 13 49  1  0
 13 50  1  0
 15 51  1  0
 16 52  1  0
 18 53  1  0
 19 54  1  0
 20 55  1  0
 24 56  1  0
 25 57  1  0
 28 58  1  0
 28 59  1  0
 29 60  1  0
 29 61  1  0
 30 62  1  0
 31 63  1  0
 31 64  1  0
 32 65  1  0
 32 66  1  0
 33 67  1  0
 34 68  1  0
M  END
>  <Energy>  (673) 
108.38412227460594

>  <compound_id>  (673) 
2574

>  <target_id>  (673) 
1

>  <reference_id>  (673) 
124

>  <inspiration_ids>  (673) 
[124, 114]

>  <energy_score>  (673) 
-49.37936959450777

>  <distance_score>  (673) 
2.8362523090817757

>  <path>  (673) 
/opt/xchem-fragalysis-2/maxwin/BulkDock/SCRATCH/505734/C2574-P124/C2574-P124.minimised.mol

>  <scratch_subdir>  (673) 
/opt/xchem-fragalysis-2/maxwin/BulkDock/SCRATCH/505734/C2574-P124

>  <fragmenstein_runtime>  (673) 
39.55700469017029

>  <fragmenstein_outcome>  (673) 
too moved

>  <fragmenstein_mode>  (673) 
expansion

>  <fragmenstein_error>  (673) 


$$$$
C2574-P114
     RDKit          3D

 68 71  0  0  0  0  0  0  0  0999 V2000
   17.7220    1.3208   14.7757 C   0  0  0  0  0  0  0  0  0  0  0  0
   17.2799    2.2826   16.2001 S   0  0  0  0  0  0  0  0  0  0  0  0
   18.0920    3.4850   16.1779 O   0  0  0  0  0  0  0  0  0  0  0  0
   17.1986    1.3307   17.4122 N   0  0  0  0  0  0  0  0  0  0  0  0
   17.2988    1.9172   18.7559 C   0  0  0  0  0  0  0  0  0  0  0  0
   16.9420    0.8740   19.8199 C   0  0  0  0  0  0  0  0  0  0  0  0
   15.4772    0.4303   19.7386 C   0  0  0  0  0  0  0  0  0  0  0  0
   14.9829   -0.3041   20.9884 C   0  0  0  0  0  0  0  0  0  0  0  0
   15.7148   -1.5980   21.3453 C   0  0  0  0  0  0  0  0  0  0  0  0
   15.8171   -2.6221   20.2146 C   0  0  0  0  0  0  0  0  0  0  0  0
   16.9037   -2.9519   19.8359 O   0  0  0  0  0  0  0  0  0  0  0  0
   14.5159   -3.0251   19.7827 N   0  0  0  0  0  0  0  0  0  0  0  0
   14.1011   -3.8806   18.6952 C   0  0  0  0  0  0  0  0  0  0  0  0
   14.1110   -3.1486   17.3663 C   0  0  0  0  0  0  0  0  0  0  0  0
   15.3467   -2.8739   16.7674 C   0  0  0  0  0  0  0  0  0  0  0  0
   15.3991   -2.1669   15.5687 C   0  0  0  0  0  0  0  0  0  0  0  0
   14.1806   -1.7608   15.0126 C   0  0  0  0  0  0  0  0  0  0  0  0
   13.7887   -1.0179   13.8691 C   0  0  0  0  0  0  0  0  0  0  0  0
   12.4140   -0.9411   13.8786 C   0  0  0  0  0  0  0  0  0  0  0  0
   11.9568   -1.6747   14.9407 N   0  0  0  0  0  0  0  0  0  0  0  0
   13.0151   -2.1123   15.6853 C   0  0  0  0  0  0  0  0  0  0  0  0
   12.9065   -2.7742   16.8499 N   0  0  0  0  0  0  0  0  0  0  0  0
   15.6086    2.7799   15.8262 C   0  0  0  0  0  0  0  0  0  0  0  0
   15.3511    4.0592   15.3428 C   0  0  0  0  0  0  0  0  0  0  0  0
   14.0326    4.4378   15.0514 C   0  0  0  0  0  0  0  0  0  0  0  0
   12.9455    3.5689   15.2510 C   0  0  0  0  0  0  0  0  0  0  0  0
   11.6263    3.9339   14.9754 N   0  0  0  0  0  0  0  0  0  0  0  0
   10.5697    3.4167   15.8729 C   0  0  0  0  0  0  0  0  0  0  0  0
    9.5477    4.5106   16.2597 C   0  0  0  0  0  0  0  0  0  0  0  0
    8.9164    5.2210   15.1350 N   0  0  0  0  0  0  0  0  0  0  0  0
    9.8250    5.3120   13.9787 C   0  0  0  0  0  0  0  0  0  0  0  0
   11.3285    5.2244   14.3280 C   0  0  0  0  0  0  0  0  0  0  0  0
   13.2523    2.2802   15.7268 C   0  0  0  0  0  0  0  0  0  0  0  0
   14.5614    1.8863   16.0244 C   0  0  0  0  0  0  0  0  0  0  0  0
   17.6374    1.9488   13.8861 H   0  0  0  0  0  0  0  0  0  0  0  0
   18.7563    0.9901   14.8933 H   0  0  0  0  0  0  0  0  0  0  0  0
   17.0580    0.4591   14.6959 H   0  0  0  0  0  0  0  0  0  0  0  0
   18.3240    2.2676   18.9232 H   0  0  0  0  0  0  0  0  0  0  0  0
   16.6306    2.7816   18.8522 H   0  0  0  0  0  0  0  0  0  0  0  0
   17.6009    0.0020   19.7279 H   0  0  0  0  0  0  0  0  0  0  0  0
   17.1307    1.3167   20.8056 H   0  0  0  0  0  0  0  0  0  0  0  0
   15.3250   -0.1996   18.8548 H   0  0  0  0  0  0  0  0  0  0  0  0
   14.8400    1.3136   19.6010 H   0  0  0  0  0  0  0  0  0  0  0  0
   13.9181   -0.5101   20.8501 H   0  0  0  0  0  0  0  0  0  0  0  0
   15.0454    0.3740   21.8489 H   0  0  0  0  0  0  0  0  0  0  0  0
   16.7325   -1.3613   21.6791 H   0  0  0  0  0  0  0  0  0  0  0  0
   15.2185   -2.0809   22.1960 H   0  0  0  0  0  0  0  0  0  0  0  0
   13.8209   -2.6011   20.3875 H   0  0  0  0  0  0  0  0  0  0  0  0
   13.1021   -4.2581   18.9219 H   0  0  0  0  0  0  0  0  0  0  0  0
   14.7863   -4.7337   18.6471 H   0  0  0  0  0  0  0  0  0  0  0  0
   16.2719   -3.1927   17.2415 H   0  0  0  0  0  0  0  0  0  0  0  0
   16.3494   -1.9366   15.1012 H   0  0  0  0  0  0  0  0  0  0  0  0
   14.4421   -0.5718   13.1314 H   0  0  0  0  0  0  0  0  0  0  0  0
   11.7150   -0.4547   13.2145 H   0  0  0  0  0  0  0  0  0  0  0  0
   10.9902   -1.8658   15.1536 H   0  0  0  0  0  0  0  0  0  0  0  0
   16.1581    4.7721   15.1919 H   0  0  0  0  0  0  0  0  0  0  0  0
   13.8786    5.4492   14.6871 H   0  0  0  0  0  0  0  0  0  0  0  0
   10.0524    2.5963   15.3606 H   0  0  0  0  0  0  0  0  0  0  0  0
   10.9828    3.0155   16.8038 H   0  0  0  0  0  0  0  0  0  0  0  0
   10.0524    5.2575   16.8855 H   0  0  0  0  0  0  0  0  0  0  0  0
    8.7610    4.0702   16.8829 H   0  0  0  0  0  0  0  0  0  0  0  0
    8.0551    4.7541   14.8571 H   0  0  0  0  0  0  0  0  0  0  0  0
    9.5812    4.4981   13.2834 H   0  0  0  0  0  0  0  0  0  0  0  0
    9.6253    6.2522   13.4540 H   0  0  0  0  0  0  0  0  0  0  0  0
   11.8972    5.3177   13.3947 H   0  0  0  0  0  0  0  0  0  0  0  0
   11.6019    6.0583   14.9872 H   0  0  0  0  0  0  0  0  0  0  0  0
   12.4665    1.5422   15.8641 H   0  0  0  0  0  0  0  0  0  0  0  0
   14.7474    0.8856   16.4079 H   0  0  0  0  0  0  0  0  0  0  0  0
  1  2  1  0
  2  3  2  0
  2  4  2  0
  4  5  1  0
  5  6  1  0
  6  7  1  0
  7  8  1  0
  8  9  1  0
  9 10  1  0
 10 11  2  0
 10 12  1  0
 12 13  1  0
 13 14  1  0
 14 15  2  0
 15 16  1  0
 16 17  2  0
 17 18  1  0
 18 19  2  0
 19 20  1  0
 20 21  1  0
 21 22  2  0
  2 23  1  0
 23 24  2  0
 24 25  1  0
 25 26  2  0
 26 27  1  0
 27 28  1  0
 28 29  1  0
 29 30  1  0
 30 31  1  0
 31 32  1  0
 26 33  1  0
 33 34  2  0
 22 14  1  0
 34 23  1  0
 21 17  1  0
 32 27  1  0
  1 35  1  0
  1 36  1  0
  1 37  1  0
  5 38  1  0
  5 39  1  0
  6 40  1  0
  6 41  1  0
  7 42  1  0
  7 43  1  0
  8 44  1  0
  8 45  1  0
  9 46  1  0
  9 47  1  0
 12 48  1  0
 13 49  1  0
 13 50  1  0
 15 51  1  0
 16 52  1  0
 18 53  1  0
 19 54  1  0
 20 55  1  0
 24 56  1  0
 25 57  1  0
 28 58  1  0
 28 59  1  0
 29 60  1  0
 29 61  1  0
 30 62  1  0
 31 63  1  0
 31 64  1  0
 32 65  1  0
 32 66  1  0
 33 67  1  0
 34 68  1  0
M  END
>  <Energy>  (674) 
105.17020319503848

>  <compound_id>  (674) 
2574

>  <target_id>  (674) 
1

>  <reference_id>  (674) 
114

>  <inspiration_ids>  (674) 
[124, 114]

>  <energy_score>  (674) 
-52.59328867407601

>  <distance_score>  (674) 
2.9591970794603197

>  <path>  (674) 
/opt/xchem-fragalysis-2/maxwin/BulkDock/SCRATCH/505734/C2574-P114/C2574-P114.minimised.mol

>  <scratch_subdir>  (674) 
/opt/xchem-fragalysis-2/maxwin/BulkDock/SCRATCH/505734/C2574-P114

>  <fragmenstein_runtime>  (674) 
40.076987743377686

>  <fragmenstein_outcome>  (674) 
too moved

>  <fragmenstein_mode>  (674) 
expansion

>  <fragmenstein_error>  (674) 


$$$$
C3644-P124
     RDKit          3D

 56 60  0  0  0  0  0  0  0  0999 V2000
   18.4048   -1.4930   18.0756 C   0  0  0  0  0  0  0  0  0  0  0  0
   17.0308   -1.8997   17.0627 S   0  0  0  0  0  0  0  0  0  0  0  0
   17.4714   -2.8194   16.0307 O   0  0  0  0  0  0  0  0  0  0  0  0
   15.9346   -2.2480   17.9481 O   0  0  0  0  0  0  0  0  0  0  0  0
   16.6263   -0.3540   16.2834 C   0  0  0  0  0  0  0  0  0  0  0  0
   15.7753    0.5222   16.9412 C   0  0  0  0  0  0  0  0  0  0  0  0
   15.2656    1.6268   16.2544 C   0  0  0  0  0  0  0  0  0  0  0  0
   15.5178    1.8504   14.8881 C   0  0  0  0  0  0  0  0  0  0  0  0
   14.8166    2.8303   14.1761 N   0  0  0  0  0  0  0  0  0  0  0  0
   15.1233    3.0821   12.7625 C   0  0  0  0  0  0  0  0  0  0  0  0
   14.2879    4.2652   12.2260 C   0  0  0  0  0  0  0  0  0  0  0  0
   12.8173    4.1276   12.2959 N   0  0  0  0  0  0  0  0  0  0  0  0
   12.3683    3.1869   13.3756 C   0  0  0  0  0  0  0  0  0  0  0  0
   11.9389    1.6447   12.4127 S   0  0  0  0  0  0  0  0  0  0  0  0
   12.3208    0.2842   13.3855 C   0  0  0  0  0  0  0  0  0  0  0  0
   13.4928   -0.1330   13.7795 N   0  0  0  0  0  0  0  0  0  0  0  0
   13.2391   -1.2674   14.5071 C   0  0  0  0  0  0  0  0  0  0  0  0
   14.1055   -2.1081   15.2005 C   0  0  0  0  0  0  0  0  0  0  0  0
   13.6003   -3.1292   16.0039 C   0  0  0  0  0  0  0  0  0  0  0  0
   12.2479   -3.4055   15.9800 C   0  0  0  0  0  0  0  0  0  0  0  0
   11.8065   -4.4436   16.6940 F   0  0  0  0  0  0  0  0  0  0  0  0
   11.3588   -2.6826   15.1839 C   0  0  0  0  0  0  0  0  0  0  0  0
   11.8942   -1.5918   14.4980 C   0  0  0  0  0  0  0  0  0  0  0  0
   11.3506   -0.6277   13.6945 N   0  0  0  0  0  0  0  0  0  0  0  0
   10.9751    3.7207   13.8381 C   0  0  0  0  0  0  0  0  0  0  0  0
   10.9923    4.6604   15.0422 C   0  0  0  0  0  0  0  0  0  0  0  0
   12.2947    5.4186   15.1644 C   0  0  0  0  0  0  0  0  0  0  0  0
   13.4572    4.4620   15.3904 C   0  0  0  0  0  0  0  0  0  0  0  0
   13.4021    3.1319   14.5796 C   0  0  0  0  0  0  0  0  0  0  0  0
   16.4776    1.0112   14.2943 C   0  0  0  0  0  0  0  0  0  0  0  0
   17.0281   -0.0869   14.9759 C   0  0  0  0  0  0  0  0  0  0  0  0
   18.7246   -2.3970   18.5987 H   0  0  0  0  0  0  0  0  0  0  0  0
   18.1084   -0.7344   18.8026 H   0  0  0  0  0  0  0  0  0  0  0  0
   19.2187   -1.1259   17.4473 H   0  0  0  0  0  0  0  0  0  0  0  0
   15.4604    0.3392   17.9653 H   0  0  0  0  0  0  0  0  0  0  0  0
   14.6080    2.2895   16.8055 H   0  0  0  0  0  0  0  0  0  0  0  0
   16.1830    3.3430   12.6535 H   0  0  0  0  0  0  0  0  0  0  0  0
   14.9298    2.1906   12.1545 H   0  0  0  0  0  0  0  0  0  0  0  0
   14.5646    4.4523   11.1818 H   0  0  0  0  0  0  0  0  0  0  0  0
   14.5632    5.1736   12.7751 H   0  0  0  0  0  0  0  0  0  0  0  0
   12.5088    3.6954   11.4250 H   0  0  0  0  0  0  0  0  0  0  0  0
   15.1637   -1.9944   15.0614 H   0  0  0  0  0  0  0  0  0  0  0  0
   14.2687   -3.7684   16.5721 H   0  0  0  0  0  0  0  0  0  0  0  0
   10.3163   -2.9536   15.1131 H   0  0  0  0  0  0  0  0  0  0  0  0
   10.3851   -0.5936   13.4013 H   0  0  0  0  0  0  0  0  0  0  0  0
   10.2830    2.9066   14.0861 H   0  0  0  0  0  0  0  0  0  0  0  0
   10.4814    4.2462   13.0062 H   0  0  0  0  0  0  0  0  0  0  0  0
   10.1523    5.3610   14.9704 H   0  0  0  0  0  0  0  0  0  0  0  0
   10.8288    4.0775   15.9576 H   0  0  0  0  0  0  0  0  0  0  0  0
   12.2392    6.1242   16.0016 H   0  0  0  0  0  0  0  0  0  0  0  0
   12.4658    6.0225   14.2661 H   0  0  0  0  0  0  0  0  0  0  0  0
   14.3921    5.0067   15.2063 H   0  0  0  0  0  0  0  0  0  0  0  0
   13.4824    4.2073   16.4580 H   0  0  0  0  0  0  0  0  0  0  0  0
   13.0430    2.3617   15.2595 H   0  0  0  0  0  0  0  0  0  0  0  0
   16.7501    1.1323   13.2501 H   0  0  0  0  0  0  0  0  0  0  0  0
   17.6873   -0.7671   14.4414 H   0  0  0  0  0  0  0  0  0  0  0  0
  1  2  1  0
  2  3  2  0
  2  4  2  0
  2  5  1  0
  5  6  2  0
  6  7  1  0
  7  8  2  0
  8  9  1  0
  9 10  1  0
 10 11  1  0
 11 12  1  0
 12 13  1  0
 13 14  1  0
 14 15  1  0
 15 16  2  0
 16 17  1  0
 17 18  2  0
 18 19  1  0
 19 20  2  0
 20 21  1  0
 20 22  1  0
 22 23  2  0
 23 24  1  0
 13 25  1  0
 25 26  1  0
 26 27  1  0
 27 28  1  0
 28 29  1  0
  8 30  1  0
 30 31  2  0
 31  5  1  0
 29  9  1  0
 29 13  1  0
 24 15  1  0
 23 17  1  0
  1 32  1  0
  1 33  1  0
  1 34  1  0
  6 35  1  0
  7 36  1  0
 10 37  1  0
 10 38  1  0
 11 39  1  0
 11 40  1  0
 12 41  1  0
 18 42  1  0
 19 43  1  0
 22 44  1  0
 24 45  1  0
 25 46  1  0
 25 47  1  0
 26 48  1  0
 26 49  1  0
 27 50  1  0
 27 51  1  0
 28 52  1  0
 28 53  1  0
 29 54  1  0
 30 55  1  0
 31 56  1  0
M  END
>  <Energy>  (675) 
152.57257840435076

>  <compound_id>  (675) 
3644

>  <target_id>  (675) 
1

>  <reference_id>  (675) 
124

>  <inspiration_ids>  (675) 
[124, 118]

>  <energy_score>  (675) 
-67.69124285882788

>  <distance_score>  (675) 
1.7467312578935994

>  <path>  (675) 
/opt/xchem-fragalysis-2/maxwin/BulkDock/SCRATCH/505734/C3644-P124/C3644-P124.minimised.mol

>  <scratch_subdir>  (675) 
/opt/xchem-fragalysis-2/maxwin/BulkDock/SCRATCH/505734/C3644-P124

>  <fragmenstein_runtime>  (675) 
31.56009531021118

>  <fragmenstein_outcome>  (675) 
too moved

>  <fragmenstein_mode>  (675) 
expansion

>  <fragmenstein_error>  (675) 


$$$$
C3644-P118
     RDKit          3D

 56 60  0  0  0  0  0  0  0  0999 V2000
   17.1304   -2.0735   17.6050 C   0  0  0  0  0  0  0  0  0  0  0  0
   16.8273   -2.6654   15.9626 S   0  0  0  0  0  0  0  0  0  0  0  0
   18.1084   -2.9803   15.3652 O   0  0  0  0  0  0  0  0  0  0  0  0
   15.7921   -3.6713   16.0795 O   0  0  0  0  0  0  0  0  0  0  0  0
   16.1644   -1.2999   15.0426 C   0  0  0  0  0  0  0  0  0  0  0  0
   16.2932    0.0053   15.5034 C   0  0  0  0  0  0  0  0  0  0  0  0
   15.7103    1.0510   14.7815 C   0  0  0  0  0  0  0  0  0  0  0  0
   14.9834    0.8401   13.5961 C   0  0  0  0  0  0  0  0  0  0  0  0
   14.3482    1.9107   12.9668 N   0  0  0  0  0  0  0  0  0  0  0  0
   13.8944    1.8123   11.5734 C   0  0  0  0  0  0  0  0  0  0  0  0
   13.2120    3.1235   11.1048 C   0  0  0  0  0  0  0  0  0  0  0  0
   12.1105    3.6589   11.9409 N   0  0  0  0  0  0  0  0  0  0  0  0
   12.1047    3.0908   13.3247 C   0  0  0  0  0  0  0  0  0  0  0  0
   10.9402    1.6454   13.1791 S   0  0  0  0  0  0  0  0  0  0  0  0
   11.4704    0.5112   14.3436 C   0  0  0  0  0  0  0  0  0  0  0  0
   12.2344    0.6843   15.3890 N   0  0  0  0  0  0  0  0  0  0  0  0
   12.4707   -0.5839   15.8542 C   0  0  0  0  0  0  0  0  0  0  0  0
   13.3276   -1.0167   16.8709 C   0  0  0  0  0  0  0  0  0  0  0  0
   13.3485   -2.3798   17.1841 C   0  0  0  0  0  0  0  0  0  0  0  0
   12.5249   -3.2739   16.5136 C   0  0  0  0  0  0  0  0  0  0  0  0
   12.5360   -4.5567   16.8889 F   0  0  0  0  0  0  0  0  0  0  0  0
   11.6827   -2.8758   15.4786 C   0  0  0  0  0  0  0  0  0  0  0  0
   11.6991   -1.5190   15.1753 C   0  0  0  0  0  0  0  0  0  0  0  0
   11.0562   -0.7802   14.2259 N   0  0  0  0  0  0  0  0  0  0  0  0
   11.3838    4.0995   14.2590 C   0  0  0  0  0  0  0  0  0  0  0  0
   12.2810    5.1884   14.8578 C   0  0  0  0  0  0  0  0  0  0  0  0
   13.5341    5.4500   14.0439 C   0  0  0  0  0  0  0  0  0  0  0  0
   14.3899    4.1927   13.9107 C   0  0  0  0  0  0  0  0  0  0  0  0
   13.5842    2.8629   13.8319 C   0  0  0  0  0  0  0  0  0  0  0  0
   14.9376   -0.4795   13.1187 C   0  0  0  0  0  0  0  0  0  0  0  0
   15.5049   -1.5457   13.8387 C   0  0  0  0  0  0  0  0  0  0  0  0
   16.2203   -1.6395   18.0190 H   0  0  0  0  0  0  0  0  0  0  0  0
   17.9426   -1.3447   17.5863 H   0  0  0  0  0  0  0  0  0  0  0  0
   17.4337   -2.9279   18.2152 H   0  0  0  0  0  0  0  0  0  0  0  0
   16.8378    0.2548   16.4066 H   0  0  0  0  0  0  0  0  0  0  0  0
   15.8369    2.0581   15.1678 H   0  0  0  0  0  0  0  0  0  0  0  0
   14.7528    1.6121   10.9210 H   0  0  0  0  0  0  0  0  0  0  0  0
   13.1859    0.9871   11.4503 H   0  0  0  0  0  0  0  0  0  0  0  0
   12.8330    2.9794   10.0859 H   0  0  0  0  0  0  0  0  0  0  0  0
   13.9739    3.9080   11.0289 H   0  0  0  0  0  0  0  0  0  0  0  0
   11.2223    3.4123   11.5188 H   0  0  0  0  0  0  0  0  0  0  0  0
   13.9395   -0.3036   17.4102 H   0  0  0  0  0  0  0  0  0  0  0  0
   13.9833   -2.7591   17.9797 H   0  0  0  0  0  0  0  0  0  0  0  0
   11.0646   -3.5899   14.9497 H   0  0  0  0  0  0  0  0  0  0  0  0
   10.4216   -1.1339   13.5206 H   0  0  0  0  0  0  0  0  0  0  0  0
   10.9145    3.5815   15.1072 H   0  0  0  0  0  0  0  0  0  0  0  0
   10.5562    4.5856   13.7224 H   0  0  0  0  0  0  0  0  0  0  0  0
   11.7054    6.1144   14.9713 H   0  0  0  0  0  0  0  0  0  0  0  0
   12.5761    4.8866   15.8713 H   0  0  0  0  0  0  0  0  0  0  0  0
   14.1266    6.2431   14.5152 H   0  0  0  0  0  0  0  0  0  0  0  0
   13.2602    5.8272   13.0519 H   0  0  0  0  0  0  0  0  0  0  0  0
   15.0623    4.3124   13.0526 H   0  0  0  0  0  0  0  0  0  0  0  0
   15.0535    4.1385   14.7832 H   0  0  0  0  0  0  0  0  0  0  0  0
   13.5249    2.5042   14.8638 H   0  0  0  0  0  0  0  0  0  0  0  0
   14.4167   -0.7226   12.1982 H   0  0  0  0  0  0  0  0  0  0  0  0
   15.4177   -2.5614   13.4572 H   0  0  0  0  0  0  0  0  0  0  0  0
  1  2  1  0
  2  3  2  0
  2  4  2  0
  2  5  1  0
  5  6  2  0
  6  7  1  0
  7  8  2  0
  8  9  1  0
  9 10  1  0
 10 11  1  0
 11 12  1  0
 12 13  1  0
 13 14  1  0
 14 15  1  0
 15 16  2  0
 16 17  1  0
 17 18  2  0
 18 19  1  0
 19 20  2  0
 20 21  1  0
 20 22  1  0
 22 23  2  0
 23 24  1  0
 13 25  1  0
 25 26  1  0
 26 27  1  0
 27 28  1  0
 28 29  1  0
  8 30  1  0
 30 31  2  0
 31  5  1  0
 29  9  1  0
 29 13  1  0
 24 15  1  0
 23 17  1  0
  1 32  1  0
  1 33  1  0
  1 34  1  0
  6 35  1  0
  7 36  1  0
 10 37  1  0
 10 38  1  0
 11 39  1  0
 11 40  1  0
 12 41  1  0
 18 42  1  0
 19 43  1  0
 22 44  1  0
 24 45  1  0
 25 46  1  0
 25 47  1  0
 26 48  1  0
 26 49  1  0
 27 50  1  0
 27 51  1  0
 28 52  1  0
 28 53  1  0
 29 54  1  0
 30 55  1  0
 31 56  1  0
M  END
>  <Energy>  (676) 
142.48847979063825

>  <compound_id>  (676) 
3644

>  <target_id>  (676) 
1

>  <reference_id>  (676) 
118

>  <inspiration_ids>  (676) 
[124, 118]

>  <energy_score>  (676) 
-77.77534147254411

>  <distance_score>  (676) 
1.2000225779227822

>  <path>  (676) 
/opt/xchem-fragalysis-2/maxwin/BulkDock/SCRATCH/505734/C3644-P118/C3644-P118.minimised.mol

>  <scratch_subdir>  (676) 
/opt/xchem-fragalysis-2/maxwin/BulkDock/SCRATCH/505734/C3644-P118

>  <fragmenstein_runtime>  (676) 
29.95822238922119

>  <fragmenstein_outcome>  (676) 
too moved

>  <fragmenstein_mode>  (676) 
expansion

>  <fragmenstein_error>  (676) 


$$$$
C2738-P124
     RDKit          3D

 69 74  0  0  0  0  0  0  0  0999 V2000
   10.8730    4.6336   17.6958 C   0  0  0  0  0  0  0  0  0  0  0  0
   12.3390    5.5223   18.1549 S   0  0  0  0  0  0  0  0  0  0  0  0
   12.8444    6.1893   16.9689 O   0  0  0  0  0  0  0  0  0  0  0  0
   12.0630    6.2658   19.3685 O   0  0  0  0  0  0  0  0  0  0  0  0
   13.4807    4.2279   18.5708 C   0  0  0  0  0  0  0  0  0  0  0  0
   13.4101    3.6229   19.8249 C   0  0  0  0  0  0  0  0  0  0  0  0
   14.2859    2.5771   20.1261 C   0  0  0  0  0  0  0  0  0  0  0  0
   15.2411    2.1357   19.1980 C   0  0  0  0  0  0  0  0  0  0  0  0
   16.0397    1.0422   19.5363 N   0  0  0  0  0  0  0  0  0  0  0  0
   15.4965   -0.2660   19.1013 C   0  0  0  0  0  0  0  0  0  0  0  0
   16.3238   -0.8652   17.9449 C   0  0  0  0  0  0  0  0  0  0  0  0
   17.7390   -1.1133   18.2881 N   0  0  0  0  0  0  0  0  0  0  0  0
   18.6402   -1.0589   17.1318 C   0  0  0  0  0  0  0  0  0  0  0  0
   18.4540   -2.1606   16.0756 C   0  0  0  0  0  0  0  0  0  0  0  0
   17.3776   -1.9274   15.0269 C   0  0  0  0  0  0  0  0  0  0  0  0
   17.6755   -0.4903   14.0426 S   0  0  0  0  0  4  0  0  0  0  0  0
   18.0921   -0.9918   12.4382 C   0  0  0  0  0  0  0  0  0  0  0  0
   18.1280   -2.2389   12.0337 N   0  0  0  0  0  0  0  0  0  0  0  0
   18.5347   -2.1874   10.7244 C   0  0  0  0  0  0  0  0  0  0  0  0
   18.7614   -3.2268    9.8106 C   0  0  0  0  0  0  0  0  0  0  0  0
   19.1718   -2.9031    8.5105 C   0  0  0  0  0  0  0  0  0  0  0  0
   19.3529   -1.5736    8.1403 C   0  0  0  0  0  0  0  0  0  0  0  0
   19.7377   -1.2936    6.8880 F   0  0  0  0  0  0  0  0  0  0  0  0
   19.1391   -0.5189    9.0297 C   0  0  0  0  0  0  0  0  0  0  0  0
   18.7308   -0.8707   10.3177 C   0  0  0  0  0  0  0  0  0  0  0  0
   18.4430   -0.1298   11.4336 N   0  0  0  0  0  0  0  0  0  0  0  0
   16.2061    0.3816   13.9240 C   0  0  0  0  0  0  0  0  0  0  0  0
   16.2564    1.7063   14.1621 C   0  0  0  0  0  0  0  0  0  0  0  0
   15.0274    2.4844   14.0922 C   0  0  0  0  0  0  0  0  0  0  0  0
   13.8397    1.8987   13.8503 C   0  0  0  0  0  0  0  0  0  0  0  0
   13.7824    0.4980   13.6222 C   0  0  0  0  0  0  0  0  0  0  0  0
   12.7849   -0.3297   13.4080 N   0  0  0  0  0  0  0  0  0  0  0  0
   13.3137   -1.5832   13.2097 N   0  0  0  0  0  0  0  0  0  0  0  0
   14.6211   -1.4830   13.2836 C   0  0  0  0  0  0  0  0  0  0  0  0
   14.9767   -0.2064   13.6218 N   0  0  0  0  0  0  0  0  0  0  0  0
   18.1887   -0.1850   19.3596 C   0  0  0  0  0  0  0  0  0  0  0  0
   17.4944    1.1958   19.3430 C   0  0  0  0  0  0  0  0  0  0  0  0
   15.3114    2.7824   17.9577 C   0  0  0  0  0  0  0  0  0  0  0  0
   14.4417    3.8294   17.6423 C   0  0  0  0  0  0  0  0  0  0  0  0
   10.5294    4.0434   18.5474 H   0  0  0  0  0  0  0  0  0  0  0  0
   11.0999    3.9898   16.8439 H   0  0  0  0  0  0  0  0  0  0  0  0
   10.1088    5.3622   17.4170 H   0  0  0  0  0  0  0  0  0  0  0  0
   12.6872    3.9496   20.5686 H   0  0  0  0  0  0  0  0  0  0  0  0
   14.2284    2.0922   21.0995 H   0  0  0  0  0  0  0  0  0  0  0  0
   15.5095   -0.9486   19.9603 H   0  0  0  0  0  0  0  0  0  0  0  0
   14.4545   -0.1875   18.7870 H   0  0  0  0  0  0  0  0  0  0  0  0
   16.2504   -0.1725   17.0975 H   0  0  0  0  0  0  0  0  0  0  0  0
   15.8634   -1.8139   17.6495 H   0  0  0  0  0  0  0  0  0  0  0  0
   19.6629   -1.1984   17.5082 H   0  0  0  0  0  0  0  0  0  0  0  0
   18.6239   -0.0624   16.6777 H   0  0  0  0  0  0  0  0  0  0  0  0
   19.4115   -2.2805   15.5510 H   0  0  0  0  0  0  0  0  0  0  0  0
   18.2655   -3.1174   16.5786 H   0  0  0  0  0  0  0  0  0  0  0  0
   17.3377   -2.7968   14.3647 H   0  0  0  0  0  0  0  0  0  0  0  0
   16.3942   -1.8411   15.4872 H   0  0  0  0  0  0  0  0  0  0  0  0
   18.6664    0.2729   14.5577 H   0  0  0  0  0  0  0  0  0  0  0  0
   18.6115   -4.2604   10.1044 H   0  0  0  0  0  0  0  0  0  0  0  0
   19.3454   -3.6938    7.7851 H   0  0  0  0  0  0  0  0  0  0  0  0
   19.2899    0.5084    8.7211 H   0  0  0  0  0  0  0  0  0  0  0  0
   18.4876    0.8754   11.5095 H   0  0  0  0  0  0  0  0  0  0  0  0
   17.1735    2.2294   14.4146 H   0  0  0  0  0  0  0  0  0  0  0  0
   15.0907    3.5557   14.2609 H   0  0  0  0  0  0  0  0  0  0  0  0
   12.9150    2.4647   13.8246 H   0  0  0  0  0  0  0  0  0  0  0  0
   15.3274   -2.2835   13.1134 H   0  0  0  0  0  0  0  0  0  0  0  0
   17.9764   -0.6717   20.3209 H   0  0  0  0  0  0  0  0  0  0  0  0
   19.2769   -0.0484   19.3394 H   0  0  0  0  0  0  0  0  0  0  0  0
   17.7410    1.6970   18.4000 H   0  0  0  0  0  0  0  0  0  0  0  0
   17.8948    1.8105   20.1576 H   0  0  0  0  0  0  0  0  0  0  0  0
   16.0305    2.4608   17.2113 H   0  0  0  0  0  0  0  0  0  0  0  0
   14.5150    4.3160   16.6736 H   0  0  0  0  0  0  0  0  0  0  0  0
  1  2  1  0
  2  3  2  0
  2  4  2  0
  2  5  1  0
  5  6  2  0
  6  7  1  0
  7  8  2  0
  8  9  1  0
  9 10  1  0
 10 11  1  0
 11 12  1  0
 12 13  1  0
 13 14  1  0
 14 15  1  0
 15 16  1  0
 16 17  1  0
 17 18  2  0
 18 19  1  0
 19 20  2  0
 20 21  1  0
 21 22  2  0
 22 23  1  0
 22 24  1  0
 24 25  2  0
 25 26  1  0
 16 27  1  0
 27 28  2  0
 28 29  1  0
 29 30  2  0
 30 31  1  0
 31 32  2  0
 32 33  1  0
 33 34  2  0
 34 35  1  0
 12 36  1  0
 36 37  1  0
  8 38  1  0
 38 39  2  0
 39  5  1  0
 37  9  1  0
 26 17  1  0
 35 27  1  0
 25 19  1  0
 35 31  1  0
  1 40  1  0
  1 41  1  0
  1 42  1  0
  6 43  1  0
  7 44  1  0
 10 45  1  0
 10 46  1  0
 11 47  1  0
 11 48  1  0
 13 49  1  0
 13 50  1  0
 14 51  1  0
 14 52  1  0
 15 53  1  0
 15 54  1  0
 16 55  1  0
 20 56  1  0
 21 57  1  0
 24 58  1  0
 26 59  1  0
 28 60  1  0
 29 61  1  0
 30 62  1  0
 34 63  1  0
 36 64  1  0
 36 65  1  0
 37 66  1  0
 37 67  1  0
 38 68  1  0
 39 69  1  0
M  END
>  <Energy>  (677) 
156.21789687299915

>  <compound_id>  (677) 
2738

>  <target_id>  (677) 
1

>  <reference_id>  (677) 
124

>  <inspiration_ids>  (677) 
[124, 120]

>  <energy_score>  (677) 
-76.60026109082172

>  <distance_score>  (677) 
3.2046838970583003

>  <path>  (677) 
/opt/xchem-fragalysis-2/maxwin/BulkDock/SCRATCH/505734/C2738-P124/C2738-P124.minimised.mol

>  <scratch_subdir>  (677) 
/opt/xchem-fragalysis-2/maxwin/BulkDock/SCRATCH/505734/C2738-P124

>  <fragmenstein_runtime>  (677) 
48.53894376754761

>  <fragmenstein_outcome>  (677) 
too moved

>  <fragmenstein_mode>  (677) 
expansion

>  <fragmenstein_error>  (677) 


$$$$
C2738-P120
     RDKit          3D

 69 74  0  0  0  0  0  0  0  0999 V2000
   10.8851    6.9024   19.2971 C   0  0  0  0  0  0  0  0  0  0  0  0
   11.7685    7.1715   17.7826 S   0  0  0  0  0  0  0  0  0  0  0  0
   10.8026    7.5298   16.7596 O   0  0  0  0  0  0  0  0  0  0  0  0
   12.9004    8.0344   18.0643 O   0  0  0  0  0  0  0  0  0  0  0  0
   12.3994    5.5639   17.3956 C   0  0  0  0  0  0  0  0  0  0  0  0
   13.5833    5.1303   17.9802 C   0  0  0  0  0  0  0  0  0  0  0  0
   14.0421    3.8343   17.7195 C   0  0  0  0  0  0  0  0  0  0  0  0
   13.3484    2.9499   16.8759 C   0  0  0  0  0  0  0  0  0  0  0  0
   13.7956    1.6466   16.6621 N   0  0  0  0  0  0  0  0  0  0  0  0
   12.9780    0.6233   15.3350 C   0  0  0  0  0  0  0  0  0  0  0  0
   13.9793   -1.4189   15.1728 C   0  0  0  0  0  0  0  0  0  0  0  0
   15.3331   -1.6651   16.3795 N   0  0  0  0  0  0  0  0  0  0  0  0
   16.1689   -2.8164   16.1926 C   0  0  0  0  0  0  0  0  0  0  0  0
   17.6547   -2.4560   16.3070 C   0  0  0  0  0  0  0  0  0  0  0  0
   18.1105   -1.3005   15.4110 C   0  0  0  0  0  0  0  0  0  0  0  0
   17.6256    0.3142   15.9709 S   0  0  0  0  0  4  0  0  0  0  0  0
   18.9064    1.4321   15.5895 C   0  0  0  0  0  0  0  0  0  0  0  0
   18.9313    2.6509   16.0796 N   0  0  0  0  0  0  0  0  0  0  0  0
   20.0610    3.2325   15.5648 C   0  0  0  0  0  0  0  0  0  0  0  0
   20.5694    4.5274   15.7516 C   0  0  0  0  0  0  0  0  0  0  0  0
   21.7591    4.8802   15.1017 C   0  0  0  0  0  0  0  0  0  0  0  0
   22.4174    3.9598   14.2896 C   0  0  0  0  0  0  0  0  0  0  0  0
   23.5535    4.3267   13.6807 F   0  0  0  0  0  0  0  0  0  0  0  0
   21.9337    2.6656   14.0865 C   0  0  0  0  0  0  0  0  0  0  0  0
   20.7465    2.3407   14.7454 C   0  0  0  0  0  0  0  0  0  0  0  0
   19.9902    1.1977   14.7851 N   0  0  0  0  0  0  0  0  0  0  0  0
   16.1573    0.7222   15.0933 C   0  0  0  0  0  0  0  0  0  0  0  0
   16.4569    1.2560   13.8815 C   0  0  0  0  0  0  0  0  0  0  0  0
   15.5983    1.3341   12.7226 C   0  0  0  0  0  0  0  0  0  0  0  0
   14.4680    0.6387   12.5940 C   0  0  0  0  0  0  0  0  0  0  0  0
   13.9400   -0.0217   13.7205 C   0  0  0  0  0  0  0  0  0  0  0  0
   12.5731   -0.7327   13.9775 N   0  0  0  0  0  0  0  0  0  0  0  0
   12.2168   -1.0574   15.7725 N   0  0  0  0  0  0  0  0  0  0  0  0
   13.4813   -0.4990   16.6364 C   0  0  0  0  0  0  0  0  0  0  0  0
   14.7717    0.2190   15.3343 N   0  0  0  0  0  0  0  0  0  0  0  0
   15.4852   -0.7500   17.6735 C   0  0  0  0  0  0  0  0  0  0  0  0
   15.0179    1.0199   17.7042 C   0  0  0  0  0  0  0  0  0  0  0  0
   12.1853    3.4472   16.2675 C   0  0  0  0  0  0  0  0  0  0  0  0
   11.7077    4.7391   16.5168 C   0  0  0  0  0  0  0  0  0  0  0  0
   11.5776    6.5329   20.0557 H   0  0  0  0  0  0  0  0  0  0  0  0
   10.0832    6.1835   19.1193 H   0  0  0  0  0  0  0  0  0  0  0  0
   10.4618    7.8573   19.6159 H   0  0  0  0  0  0  0  0  0  0  0  0
   14.1523    5.7769   18.6435 H   0  0  0  0  0  0  0  0  0  0  0  0
   14.9713    3.5401   18.1962 H   0  0  0  0  0  0  0  0  0  0  0  0
   11.8953    0.7321   15.6604 H   0  0  0  0  0  0  0  0  0  0  0  0
   12.9908    1.4258   14.5415 H   0  0  0  0  0  0  0  0  0  0  0  0
   14.5682   -1.7583   14.2676 H   0  0  0  0  0  0  0  0  0  0  0  0
   13.4114   -2.3855   15.3531 H   0  0  0  0  0  0  0  0  0  0  0  0
   15.9957   -3.2573   15.2049 H   0  0  0  0  0  0  0  0  0  0  0  0
   15.9166   -3.5886   16.9273 H   0  0  0  0  0  0  0  0  0  0  0  0
   18.2271   -3.3488   16.0239 H   0  0  0  0  0  0  0  0  0  0  0  0
   17.9236   -2.2487   17.3489 H   0  0  0  0  0  0  0  0  0  0  0  0
   19.2042   -1.3139   15.3919 H   0  0  0  0  0  0  0  0  0  0  0  0
   17.7598   -1.4363   14.3834 H   0  0  0  0  0  0  0  0  0  0  0  0
   17.5394    0.3916   17.3089 H   0  0  0  0  0  0  0  0  0  0  0  0
   20.0443    5.2328   16.3864 H   0  0  0  0  0  0  0  0  0  0  0  0
   22.1754    5.8753   15.2275 H   0  0  0  0  0  0  0  0  0  0  0  0
   22.4636    1.9667   13.4511 H   0  0  0  0  0  0  0  0  0  0  0  0
   20.1924    0.3393   14.2956 H   0  0  0  0  0  0  0  0  0  0  0  0
   17.4590    1.5910   13.6323 H   0  0  0  0  0  0  0  0  0  0  0  0
   15.9749    1.9056   11.8767 H   0  0  0  0  0  0  0  0  0  0  0  0
   13.8891    0.6579   11.6782 H   0  0  0  0  0  0  0  0  0  0  0  0
   13.4136   -0.2806   17.6962 H   0  0  0  0  0  0  0  0  0  0  0  0
   14.9009   -1.2435   18.4701 H   0  0  0  0  0  0  0  0  0  0  0  0
   16.4858   -0.8251   18.1036 H   0  0  0  0  0  0  0  0  0  0  0  0
   15.9053    1.6351   17.5417 H   0  0  0  0  0  0  0  0  0  0  0  0
   14.6533    1.2001   18.7249 H   0  0  0  0  0  0  0  0  0  0  0  0
   11.5917    2.8310   15.6031 H   0  0  0  0  0  0  0  0  0  0  0  0
   10.7888    5.0714   16.0411 H   0  0  0  0  0  0  0  0  0  0  0  0
  1  2  1  0
  2  3  2  0
  2  4  2  0
  2  5  1  0
  5  6  2  0
  6  7  1  0
  7  8  2  0
  8  9  1  0
  9 10  1  0
 10 11  1  0
 11 12  1  0
 12 13  1  0
 13 14  1  0
 14 15  1  0
 15 16  1  0
 16 17  1  0
 17 18  2  0
 18 19  1  0
 19 20  2  0
 20 21  1  0
 21 22  2  0
 22 23  1  0
 22 24  1  0
 24 25  2  0
 25 26  1  0
 16 27  1  0
 27 28  2  0
 28 29  1  0
 29 30  2  0
 30 31  1  0
 31 32  2  0
 32 33  1  0
 33 34  2  0
 34 35  1  0
 12 36  1  0
 36 37  1  0
  8 38  1  0
 38 39  2  0
 39  5  1  0
 37  9  1  0
 26 17  1  0
 35 27  1  0
 25 19  1  0
 35 31  1  0
  1 40  1  0
  1 41  1  0
  1 42  1  0
  6 43  1  0
  7 44  1  0
 10 45  1  0
 10 46  1  0
 11 47  1  0
 11 48  1  0
 13 49  1  0
 13 50  1  0
 14 51  1  0
 14 52  1  0
 15 53  1  0
 15 54  1  0
 16 55  1  0
 20 56  1  0
 21 57  1  0
 24 58  1  0
 26 59  1  0
 28 60  1  0
 29 61  1  0
 30 62  1  0
 34 63  1  0
 36 64  1  0
 36 65  1  0
 37 66  1  0
 37 67  1  0
 38 68  1  0
 39 69  1  0
M  END
>  <Energy>  (678) 
1481.7605929462102

>  <compound_id>  (678) 
2738

>  <target_id>  (678) 
1

>  <reference_id>  (678) 
120

>  <inspiration_ids>  (678) 
[124, 120]

>  <energy_score>  (678) 
1248.9424349823853

>  <distance_score>  (678) 
2.5981744429948597

>  <path>  (678) 
/opt/xchem-fragalysis-2/maxwin/BulkDock/SCRATCH/505734/C2738-P120/C2738-P120.minimised.mol

>  <scratch_subdir>  (678) 
/opt/xchem-fragalysis-2/maxwin/BulkDock/SCRATCH/505734/C2738-P120

>  <fragmenstein_runtime>  (678) 
47.49203300476074

>  <fragmenstein_outcome>  (678) 
too moved

>  <fragmenstein_mode>  (678) 
expansion

>  <fragmenstein_error>  (678) 


$$$$
C3645-P124
     RDKit          3D

 73 76  0  0  0  0  0  0  0  0999 V2000
   11.4891   -2.2441   14.4452 C   0  0  0  0  0  0  0  0  0  0  0  0
   12.4727   -2.7014   15.4322 C   0  0  0  0  0  0  0  0  0  0  0  0
   13.7869   -2.4051   15.6743 C   0  0  0  0  0  0  0  0  0  0  0  0
   14.1413   -3.2390   16.7584 C   0  0  0  0  0  0  0  0  0  0  0  0
   15.4489   -3.3305   17.4591 C   0  0  0  0  0  0  0  0  0  0  0  0
   16.5290   -3.3389   16.4575 N   0  0  0  0  0  0  0  0  0  0  0  0
   17.7850   -2.2905   16.7683 S   0  0  0  0  0  0  0  0  0  0  0  0
   18.7795   -2.5414   15.7565 O   0  0  0  0  0  0  0  0  0  0  0  0
   18.0735   -2.3876   18.1776 O   0  0  0  0  0  0  0  0  0  0  0  0
   16.9545   -0.8711   16.4371 N   0  0  0  0  0  0  0  0  0  0  0  0
   17.1637   -0.3152   15.0730 C   0  0  0  0  0  0  0  0  0  0  0  0
   16.1688    0.8207   14.7878 C   0  0  0  0  0  0  0  0  0  0  0  0
   16.1649    1.8751   15.8170 N   0  0  0  0  0  0  0  0  0  0  0  0
   15.9020    1.2758   17.1458 C   0  0  0  0  0  0  0  0  0  0  0  0
   15.8740    2.3533   18.2518 C   0  0  0  0  0  0  0  0  0  0  0  0
   14.9312    3.5342   17.9561 C   0  0  0  0  0  0  0  0  0  0  0  0
   14.8695    4.5556   19.0954 C   0  0  0  0  0  0  0  0  0  0  0  0
   13.9311    4.1273   20.1450 N   0  0  0  0  0  0  0  0  0  0  0  0
   12.4818    4.6746   20.1227 S   0  0  0  0  0  0  0  0  0  0  0  0
   12.3741    5.9889   21.3115 C   0  0  0  0  0  0  0  0  0  0  0  0
   11.8163    5.1311   18.9173 O   0  0  0  0  0  0  0  0  0  0  0  0
   11.4508    3.4124   20.8442 C   0  0  0  0  0  0  0  0  0  0  0  0
   11.9779    2.6133   21.8553 C   0  0  0  0  0  0  0  0  0  0  0  0
   11.2541    1.5079   22.2969 C   0  0  0  0  0  0  0  0  0  0  0  0
   10.0152    1.1712   21.7297 C   0  0  0  0  0  0  0  0  0  0  0  0
    9.4426   -0.0760   22.0666 N   0  0  0  0  0  0  0  0  0  0  0  0
    9.5011   -0.4258   24.1262 C   0  0  0  0  0  0  0  0  0  0  0  0
    8.6542   -2.2018   24.7715 C   0  0  0  0  0  0  0  0  0  0  0  0
    7.5760   -3.4713   23.4708 N   0  0  0  0  0  0  0  0  0  0  0  0
    7.8829   -3.2241   21.4634 C   0  0  0  0  0  0  0  0  0  0  0  0
    8.0133   -1.0989   20.8673 C   0  0  0  0  0  0  0  0  0  0  0  0
    9.4590    2.0388   20.7828 C   0  0  0  0  0  0  0  0  0  0  0  0
   10.1762    3.1569   20.3309 C   0  0  0  0  0  0  0  0  0  0  0  0
   16.9536    0.1816   17.4895 C   0  0  0  0  0  0  0  0  0  0  0  0
   13.1012   -3.9808   17.1559 N   0  0  0  0  0  0  0  0  0  0  0  0
   12.0582   -3.6497   16.3100 O   0  0  0  0  0  0  0  0  0  0  0  0
   11.3855   -2.9965   13.6593 H   0  0  0  0  0  0  0  0  0  0  0  0
   10.5148   -2.0941   14.9191 H   0  0  0  0  0  0  0  0  0  0  0  0
   11.7991   -1.3015   13.9846 H   0  0  0  0  0  0  0  0  0  0  0  0
   14.4113   -1.7111   15.1377 H   0  0  0  0  0  0  0  0  0  0  0  0
   15.5133   -2.4828   18.1490 H   0  0  0  0  0  0  0  0  0  0  0  0
   15.5194   -4.2445   18.0581 H   0  0  0  0  0  0  0  0  0  0  0  0
   16.8803   -4.2686   16.2390 H   0  0  0  0  0  0  0  0  0  0  0  0
   17.0157   -1.0997   14.3227 H   0  0  0  0  0  0  0  0  0  0  0  0
   18.1893    0.0640   14.9882 H   0  0  0  0  0  0  0  0  0  0  0  0
   15.1553    0.4147   14.6917 H   0  0  0  0  0  0  0  0  0  0  0  0
   16.4177    1.2765   13.8231 H   0  0  0  0  0  0  0  0  0  0  0  0
   15.4125    2.5250   15.5870 H   0  0  0  0  0  0  0  0  0  0  0  0
   14.9133    0.8013   17.1129 H   0  0  0  0  0  0  0  0  0  0  0  0
   16.8882    2.7448   18.4053 H   0  0  0  0  0  0  0  0  0  0  0  0
   15.5733    1.8790   19.1945 H   0  0  0  0  0  0  0  0  0  0  0  0
   13.9295    3.1689   17.7044 H   0  0  0  0  0  0  0  0  0  0  0  0
   15.3078    4.0684   17.0757 H   0  0  0  0  0  0  0  0  0  0  0  0
   15.8623    4.6790   19.5427 H   0  0  0  0  0  0  0  0  0  0  0  0
   14.5833    5.5383   18.7014 H   0  0  0  0  0  0  0  0  0  0  0  0
   12.9474    6.8388   20.9344 H   0  0  0  0  0  0  0  0  0  0  0  0
   12.7841    5.6528   22.2659 H   0  0  0  0  0  0  0  0  0  0  0  0
   11.3267    6.2761   21.4260 H   0  0  0  0  0  0  0  0  0  0  0  0
   12.9786    2.7864   22.2440 H   0  0  0  0  0  0  0  0  0  0  0  0
   11.7320    0.8326   23.0009 H   0  0  0  0  0  0  0  0  0  0  0  0
   10.5902   -0.4329   24.3791 H   0  0  0  0  0  0  0  0  0  0  0  0
    9.1126    0.4111   24.7634 H   0  0  0  0  0  0  0  0  0  0  0  0
    7.8082   -1.8393   25.4291 H   0  0  0  0  0  0  0  0  0  0  0  0
    9.2297   -2.6347   25.6245 H   0  0  0  0  0  0  0  0  0  0  0  0
    7.8214   -4.4506   23.6140 H   0  0  0  0  0  0  0  0  0  0  0  0
    8.0056   -4.1164   20.8298 H   0  0  0  0  0  0  0  0  0  0  0  0
    6.7431   -3.1493   21.2440 H   0  0  0  0  0  0  0  0  0  0  0  0
    8.6229   -1.0736   21.5799 H   0  0  0  0  0  0  0  0  0  0  0  0
    8.3157   -0.7382   19.8517 H   0  0  0  0  0  0  0  0  0  0  0  0
    8.4972    1.8143   20.3319 H   0  0  0  0  0  0  0  0  0  0  0  0
    9.7602    3.7740   19.5381 H   0  0  0  0  0  0  0  0  0  0  0  0
   16.6844   -0.2605   18.4549 H   0  0  0  0  0  0  0  0  0  0  0  0
   17.9559    0.6191   17.5709 H   0  0  0  0  0  0  0  0  0  0  0  0
  1  2  1  0
  2  3  2  0
  3  4  1  0
  4  5  1  0
  5  6  1  0
  6  7  1  0
  7  8  2  0
  7  9  2  0
  7 10  1  0
 10 11  1  0
 11 12  1  0
 12 13  1  0
 13 14  1  0
 14 15  1  0
 15 16  1  0
 16 17  1  0
 17 18  1  0
 18 19  2  0
 19 20  1  0
 19 21  2  0
 19 22  1  0
 22 23  2  0
 23 24  1  0
 24 25  2  0
 25 26  1  0
 26 27  1  0
 27 28  1  0
 28 29  1  0
 29 30  1  0
 30 31  1  0
 25 32  1  0
 32 33  2  0
 14 34  1  0
  4 35  2  0
 35 36  1  0
 36  2  1  0
 34 10  1  0
 33 22  1  0
 31 26  1  0
  1 37  1  0
  1 38  1  0
  1 39  1  0
  3 40  1  0
  5 41  1  0
  5 42  1  0
  6 43  1  0
 11 44  1  0
 11 45  1  0
 12 46  1  0
 12 47  1  0
 13 48  1  0
 14 49  1  0
 15 50  1  0
 15 51  1  0
 16 52  1  0
 16 53  1  0
 17 54  1  0
 17 55  1  0
 20 56  1  0
 20 57  1  0
 20 58  1  0
 23 59  1  0
 24 60  1  0
 27 61  1  0
 27 62  1  0
 28 63  1  0
 28 64  1  0
 29 65  1  0
 30 66  1  0
 30 67  1  0
 31 68  1  0
 31 69  1  0
 32 70  1  0
 33 71  1  0
 34 72  1  0
 34 73  1  0
M  END
>  <Energy>  (679) 
721.40377369617113

>  <compound_id>  (679) 
3645

>  <target_id>  (679) 
1

>  <reference_id>  (679) 
124

>  <inspiration_ids>  (679) 
[124, 122]

>  <energy_score>  (679) 
450.9226210407402

>  <distance_score>  (679) 
1.8933084841150667

>  <path>  (679) 
/opt/xchem-fragalysis-2/maxwin/BulkDock/SCRATCH/505734/C3645-P124/C3645-P124.minimised.mol

>  <scratch_subdir>  (679) 
/opt/xchem-fragalysis-2/maxwin/BulkDock/SCRATCH/505734/C3645-P124

>  <fragmenstein_runtime>  (679) 
53.286418199539185

>  <fragmenstein_outcome>  (679) 
too moved

>  <fragmenstein_mode>  (679) 
expansion

>  <fragmenstein_error>  (679) 


$$$$
C3645-P122
     RDKit          3D

 73 76  0  0  0  0  0  0  0  0999 V2000
   11.1193   -0.5192   15.1481 C   0  0  0  0  0  0  0  0  0  0  0  0
   12.3961   -0.9677   14.5760 C   0  0  0  0  0  0  0  0  0  0  0  0
   13.7182   -0.6927   14.8209 C   0  0  0  0  0  0  0  0  0  0  0  0
   14.4144   -1.4538   13.8511 C   0  0  0  0  0  0  0  0  0  0  0  0
   15.8759   -1.5393   13.5972 C   0  0  0  0  0  0  0  0  0  0  0  0
   16.4987   -2.7855   14.0885 N   0  0  0  0  0  0  0  0  0  0  0  0
   16.4619   -3.1017   15.7264 S   0  0  0  0  0  0  0  0  0  0  0  0
   17.4687   -4.0953   16.0123 O   0  0  0  0  0  0  0  0  0  0  0  0
   15.0949   -3.2889   16.1415 O   0  0  0  0  0  0  0  0  0  0  0  0
   16.9948   -1.6249   16.3033 N   0  0  0  0  0  0  0  0  0  0  0  0
   18.4077   -1.2585   15.9967 C   0  0  0  0  0  0  0  0  0  0  0  0
   19.2369   -1.0936   17.2764 C   0  0  0  0  0  0  0  0  0  0  0  0
   18.7186   -0.0711   18.2032 N   0  0  0  0  0  0  0  0  0  0  0  0
   17.2429    0.0438   18.1237 C   0  0  0  0  0  0  0  0  0  0  0  0
   16.6692    0.5600   19.4530 C   0  0  0  0  0  0  0  0  0  0  0  0
   17.1185    2.0003   19.7493 C   0  0  0  0  0  0  0  0  0  0  0  0
   16.5169    2.5508   21.0464 C   0  0  0  0  0  0  0  0  0  0  0  0
   15.6059    3.6774   20.7881 N   0  0  0  0  0  0  0  0  0  0  0  0
   14.1997    3.4059   20.2119 S   0  0  0  0  0  0  0  0  0  0  0  0
   13.6640    4.9022   19.4249 C   0  0  0  0  0  0  0  0  0  0  0  0
   13.9020    2.3265   19.2887 O   0  0  0  0  0  0  0  0  0  0  0  0
   13.1455    3.1667   21.6299 C   0  0  0  0  0  0  0  0  0  0  0  0
   12.4315    4.2137   22.2022 C   0  0  0  0  0  0  0  0  0  0  0  0
   11.6073    3.9615   23.3078 C   0  0  0  0  0  0  0  0  0  0  0  0
   11.4819    2.6788   23.8778 C   0  0  0  0  0  0  0  0  0  0  0  0
   10.6502    2.4955   24.9944 N   0  0  0  0  0  0  0  0  0  0  0  0
   10.9856    3.4071   26.1246 C   0  0  0  0  0  0  0  0  0  0  0  0
   10.4175    2.8946   27.4683 C   0  0  0  0  0  0  0  0  0  0  0  0
   10.8778    1.5464   27.8521 N   0  0  0  0  0  0  0  0  0  0  0  0
   11.0637    0.6850   26.6664 C   0  0  0  0  0  0  0  0  0  0  0  0
   10.2701    1.1308   25.4208 C   0  0  0  0  0  0  0  0  0  0  0  0
   12.2133    1.6473   23.2729 C   0  0  0  0  0  0  0  0  0  0  0  0
   13.0381    1.8834   22.1655 C   0  0  0  0  0  0  0  0  0  0  0  0
   16.5615   -1.2761   17.6859 C   0  0  0  0  0  0  0  0  0  0  0  0
   13.5657   -2.1205   13.0632 N   0  0  0  0  0  0  0  0  0  0  0  0
   12.3055   -1.8506   13.5508 O   0  0  0  0  0  0  0  0  0  0  0  0
   10.5407    0.0401   14.4070 H   0  0  0  0  0  0  0  0  0  0  0  0
   10.5233   -1.3727   15.4841 H   0  0  0  0  0  0  0  0  0  0  0  0
   11.2873    0.1391   16.0040 H   0  0  0  0  0  0  0  0  0  0  0  0
   14.1233   -0.0395   15.5786 H   0  0  0  0  0  0  0  0  0  0  0  0
   16.0498   -1.5022   12.5138 H   0  0  0  0  0  0  0  0  0  0  0  0
   16.3915   -0.6630   14.0012 H   0  0  0  0  0  0  0  0  0  0  0  0
   16.1505   -3.6050   13.5738 H   0  0  0  0  0  0  0  0  0  0  0  0
   18.3966   -0.3174   15.4334 H   0  0  0  0  0  0  0  0  0  0  0  0
   18.8871   -2.0009   15.3500 H   0  0  0  0  0  0  0  0  0  0  0  0
   20.2672   -0.8298   17.0150 H   0  0  0  0  0  0  0  0  0  0  0  0
   19.2785   -2.0564   17.8019 H   0  0  0  0  0  0  0  0  0  0  0  0
   19.0083   -0.3214   19.1481 H   0  0  0  0  0  0  0  0  0  0  0  0
   17.0229    0.7956   17.3527 H   0  0  0  0  0  0  0  0  0  0  0  0
   16.9743   -0.0990   20.2763 H   0  0  0  0  0  0  0  0  0  0  0  0
   15.5769    0.5140   19.4149 H   0  0  0  0  0  0  0  0  0  0  0  0
   16.8900    2.6462   18.8923 H   0  0  0  0  0  0  0  0  0  0  0  0
   18.2104    2.0079   19.8577 H   0  0  0  0  0  0  0  0  0  0  0  0
   16.0252    1.7726   21.6392 H   0  0  0  0  0  0  0  0  0  0  0  0
   17.3328    2.9403   21.6675 H   0  0  0  0  0  0  0  0  0  0  0  0
   14.2113    5.0010   18.4839 H   0  0  0  0  0  0  0  0  0  0  0  0
   13.8852    5.7583   20.0650 H   0  0  0  0  0  0  0  0  0  0  0  0
   12.5967    4.8450   19.2133 H   0  0  0  0  0  0  0  0  0  0  0  0
   12.4970    5.2269   21.8221 H   0  0  0  0  0  0  0  0  0  0  0  0
   11.0426    4.7928   23.7234 H   0  0  0  0  0  0  0  0  0  0  0  0
   12.0749    3.5084   26.2257 H   0  0  0  0  0  0  0  0  0  0  0  0
   10.5664    4.4013   25.9319 H   0  0  0  0  0  0  0  0  0  0  0  0
    9.3213    2.8891   27.4105 H   0  0  0  0  0  0  0  0  0  0  0  0
   10.6884    3.5928   28.2676 H   0  0  0  0  0  0  0  0  0  0  0  0
   10.1852    1.1287   28.4728 H   0  0  0  0  0  0  0  0  0  0  0  0
   10.7840   -0.3408   26.9306 H   0  0  0  0  0  0  0  0  0  0  0  0
   12.1334    0.6681   26.4269 H   0  0  0  0  0  0  0  0  0  0  0  0
   10.3604    0.3909   24.6217 H   0  0  0  0  0  0  0  0  0  0  0  0
    9.2005    1.1460   25.6690 H   0  0  0  0  0  0  0  0  0  0  0  0
   12.1923    0.6308   23.6555 H   0  0  0  0  0  0  0  0  0  0  0  0
   13.5880    1.0522   21.7294 H   0  0  0  0  0  0  0  0  0  0  0  0
   15.4742   -1.1386   17.6860 H   0  0  0  0  0  0  0  0  0  0  0  0
   16.8101   -2.0872   18.3809 H   0  0  0  0  0  0  0  0  0  0  0  0
  1  2  1  0
  2  3  2  0
  3  4  1  0
  4  5  1  0
  5  6  1  0
  6  7  1  0
  7  8  2  0
  7  9  2  0
  7 10  1  0
 10 11  1  0
 11 12  1  0
 12 13  1  0
 13 14  1  0
 14 15  1  0
 15 16  1  0
 16 17  1  0
 17 18  1  0
 18 19  2  0
 19 20  1  0
 19 21  2  0
 19 22  1  0
 22 23  2  0
 23 24  1  0
 24 25  2  0
 25 26  1  0
 26 27  1  0
 27 28  1  0
 28 29  1  0
 29 30  1  0
 30 31  1  0
 25 32  1  0
 32 33  2  0
 14 34  1  0
  4 35  2  0
 35 36  1  0
 36  2  1  0
 34 10  1  0
 33 22  1  0
 31 26  1  0
  1 37  1  0
  1 38  1  0
  1 39  1  0
  3 40  1  0
  5 41  1  0
  5 42  1  0
  6 43  1  0
 11 44  1  0
 11 45  1  0
 12 46  1  0
 12 47  1  0
 13 48  1  0
 14 49  1  0
 15 50  1  0
 15 51  1  0
 16 52  1  0
 16 53  1  0
 17 54  1  0
 17 55  1  0
 20 56  1  0
 20 57  1  0
 20 58  1  0
 23 59  1  0
 24 60  1  0
 27 61  1  0
 27 62  1  0
 28 63  1  0
 28 64  1  0
 29 65  1  0
 30 66  1  0
 30 67  1  0
 31 68  1  0
 31 69  1  0
 32 70  1  0
 33 71  1  0
 34 72  1  0
 34 73  1  0
M  END
>  <Energy>  (680) 
-27.385931468144651

>  <compound_id>  (680) 
3645

>  <target_id>  (680) 
1

>  <reference_id>  (680) 
122

>  <inspiration_ids>  (680) 
[124, 122]

>  <energy_score>  (680) 
-297.86708412357774

>  <distance_score>  (680) 
2.413589944659074

>  <path>  (680) 
/opt/xchem-fragalysis-2/maxwin/BulkDock/SCRATCH/505734/C3645-P122/C3645-P122.minimised.mol

>  <scratch_subdir>  (680) 
/opt/xchem-fragalysis-2/maxwin/BulkDock/SCRATCH/505734/C3645-P122

>  <fragmenstein_runtime>  (680) 
56.155744791030884

>  <fragmenstein_outcome>  (680) 
too moved

>  <fragmenstein_mode>  (680) 
expansion

>  <fragmenstein_error>  (680) 


$$$$
C3649-P125
     RDKit          3D

 46 49  0  0  0  0  0  0  0  0999 V2000
  -21.7117  -15.0561   16.0072 N   0  0  0  0  0  0  0  0  0  0  0  0
  -23.0346  -15.3200   15.4815 C   0  0  0  0  0  0  0  0  0  0  0  0
  -23.2919  -14.1333   14.6935 N   0  0  0  0  0  0  0  0  0  0  0  0
  -24.6156  -14.1818   14.1131 O   0  0  0  0  0  0  0  0  0  0  0  0
  -22.9783  -16.5580   14.4962 C   0  0  0  0  0  0  0  0  0  0  0  0
  -22.4311  -17.7547   15.1851 N   0  0  0  0  0  0  0  0  0  0  0  0
  -22.2404  -18.8828   14.2697 C   0  0  0  0  0  0  0  0  0  0  0  0
  -21.1447  -18.6080   13.2682 C   0  0  0  0  0  0  0  0  0  0  0  0
  -21.0758  -19.0595   11.9225 C   0  0  0  0  0  0  0  0  0  0  0  0
  -19.9715  -18.6642   11.2859 N   0  0  0  0  0  0  0  0  0  0  0  0
  -19.3168  -17.9351   12.2088 N   0  0  0  0  0  0  0  0  0  0  0  0
  -19.9702  -17.8906   13.4102 C   0  0  0  0  0  0  0  0  0  0  0  0
  -23.3871  -18.0860   16.2502 C   0  0  0  0  0  0  0  0  0  0  0  0
  -23.6210  -16.9060   17.2181 C   0  0  0  0  0  0  0  0  0  0  0  0
  -23.9534  -15.5854   16.6018 N   0  0  0  0  0  0  0  0  0  0  0  0
  -24.0584  -14.5525   17.6719 C   0  0  0  0  0  0  0  0  0  0  0  0
  -24.7308  -13.1937   17.2899 C   0  0  0  0  0  0  0  0  0  0  0  0
  -25.3431  -12.7737   18.5761 C   0  0  0  0  0  0  0  0  0  0  0  0
  -25.4003  -13.7600   19.4613 C   0  0  0  0  0  0  0  0  0  0  0  0
  -24.8716  -15.0262   18.9358 C   0  0  0  0  0  0  0  0  0  0  0  0
  -25.9604  -13.2843   21.0034 S   0  0  0  0  0  0  0  0  0  0  0  0
  -26.0524  -11.4987   20.4356 C   0  0  0  0  0  0  0  0  0  0  0  0
  -25.7636  -11.5371   18.9957 N   0  0  0  0  0  0  0  0  0  0  0  0
  -21.3000  -15.9776   16.1641 H   0  0  0  0  0  0  0  0  0  0  0  0
  -21.1833  -14.6843   15.2205 H   0  0  0  0  0  0  0  0  0  0  0  0
  -23.3103  -13.3422   15.3261 H   0  0  0  0  0  0  0  0  0  0  0  0
  -24.4303  -13.9951   13.1727 H   0  0  0  0  0  0  0  0  0  0  0  0
  -22.3356  -16.2871   13.6485 H   0  0  0  0  0  0  0  0  0  0  0  0
  -23.9748  -16.7660   14.0803 H   0  0  0  0  0  0  0  0  0  0  0  0
  -21.9390  -19.7727   14.8371 H   0  0  0  0  0  0  0  0  0  0  0  0
  -23.1718  -19.1293   13.7438 H   0  0  0  0  0  0  0  0  0  0  0  0
  -21.7933  -19.6673   11.3867 H   0  0  0  0  0  0  0  0  0  0  0  0
  -18.4323  -17.4993   11.9485 H   0  0  0  0  0  0  0  0  0  0  0  0
  -19.5484  -17.3563   14.2496 H   0  0  0  0  0  0  0  0  0  0  0  0
  -24.3516  -18.3927   15.8225 H   0  0  0  0  0  0  0  0  0  0  0  0
  -23.0095  -18.9349   16.8335 H   0  0  0  0  0  0  0  0  0  0  0  0
  -24.4393  -17.2310   17.8689 H   0  0  0  0  0  0  0  0  0  0  0  0
  -22.7297  -16.8054   17.8534 H   0  0  0  0  0  0  0  0  0  0  0  0
  -23.0484  -14.3198   18.0437 H   0  0  0  0  0  0  0  0  0  0  0  0
  -25.5092  -13.3166   16.5304 H   0  0  0  0  0  0  0  0  0  0  0  0
  -23.9922  -12.4604   16.9563 H   0  0  0  0  0  0  0  0  0  0  0  0
  -24.2207  -15.5407   19.6500 H   0  0  0  0  0  0  0  0  0  0  0  0
  -25.7125  -15.6761   18.6677 H   0  0  0  0  0  0  0  0  0  0  0  0
  -25.2977  -10.9138   20.9692 H   0  0  0  0  0  0  0  0  0  0  0  0
  -27.0521  -11.0991   20.6234 H   0  0  0  0  0  0  0  0  0  0  0  0
  -25.1965  -10.7692   18.6368 H   0  0  0  0  0  0  0  0  0  0  0  0
  1  2  1  0
  2  3  1  0
  3  4  1  0
  2  5  1  0
  5  6  1  0
  6  7  1  0
  7  8  1  0
  8  9  1  0
  9 10  2  0
 10 11  1  0
 11 12  1  0
  6 13  1  0
 13 14  1  0
 14 15  1  0
 15 16  1  0
 16 17  1  0
 17 18  1  0
 18 19  2  0
 19 20  1  0
 19 21  1  0
 21 22  1  0
 22 23  1  0
 15  2  1  0
 20 16  1  0
 12  8  2  0
 23 18  1  0
  1 24  1  0
  1 25  1  0
  3 26  1  0
  4 27  1  0
  5 28  1  0
  5 29  1  0
  7 30  1  0
  7 31  1  0
  9 32  1  0
 11 33  1  0
 12 34  1  0
 13 35  1  0
 13 36  1  0
 14 37  1  0
 14 38  1  0
 16 39  1  0
 17 40  1  0
 17 41  1  0
 20 42  1  0
 20 43  1  0
 22 44  1  0
 22 45  1  0
 23 46  1  0
M  END
>  <Energy>  (681) 
43.664546795781334

>  <compound_id>  (681) 
3649

>  <target_id>  (681) 
1

>  <reference_id>  (681) 
125

>  <inspiration_ids>  (681) 
[125, 178]

>  <energy_score>  (681) 
-90.84355858007652

>  <distance_score>  (681) 
1.2901058337301434

>  <path>  (681) 
/opt/xchem-fragalysis-2/maxwin/BulkDock/SCRATCH/505734/C3649-P125/C3649-P125.minimised.mol

>  <scratch_subdir>  (681) 
/opt/xchem-fragalysis-2/maxwin/BulkDock/SCRATCH/505734/C3649-P125

>  <fragmenstein_runtime>  (681) 
16.746514558792114

>  <fragmenstein_outcome>  (681) 
too moved

>  <fragmenstein_mode>  (681) 
expansion

>  <fragmenstein_error>  (681) 


$$$$
C3649-P178
     RDKit          3D

 46 49  0  0  0  0  0  0  0  0999 V2000
  -22.5319  -15.3303   15.7544 N   0  0  0  0  0  0  0  0  0  0  0  0
  -23.7891  -15.9788   15.4355 C   0  0  0  0  0  0  0  0  0  0  0  0
  -24.6173  -14.9267   14.8596 N   0  0  0  0  0  0  0  0  0  0  0  0
  -23.8135  -14.1360   13.9190 O   0  0  0  0  0  0  0  0  0  0  0  0
  -23.5397  -17.1222   14.3757 C   0  0  0  0  0  0  0  0  0  0  0  0
  -22.6139  -18.1413   14.9430 N   0  0  0  0  0  0  0  0  0  0  0  0
  -22.2615  -19.1711   13.9664 C   0  0  0  0  0  0  0  0  0  0  0  0
  -21.2445  -18.7009   12.9630 C   0  0  0  0  0  0  0  0  0  0  0  0
  -20.9701  -19.3083   11.7081 C   0  0  0  0  0  0  0  0  0  0  0  0
  -19.9723  -18.7276   11.0431 N   0  0  0  0  0  0  0  0  0  0  0  0
  -19.6008  -17.7155   11.8495 N   0  0  0  0  0  0  0  0  0  0  0  0
  -20.3267  -17.6676   13.0109 C   0  0  0  0  0  0  0  0  0  0  0  0
  -23.3105  -18.7603   16.0822 C   0  0  0  0  0  0  0  0  0  0  0  0
  -23.7451  -17.7501   17.1511 C   0  0  0  0  0  0  0  0  0  0  0  0
  -24.3874  -16.5256   16.6553 N   0  0  0  0  0  0  0  0  0  0  0  0
  -24.7822  -15.6018   17.7238 C   0  0  0  0  0  0  0  0  0  0  0  0
  -26.2994  -15.2591   17.6127 C   0  0  0  0  0  0  0  0  0  0  0  0
  -26.5714  -14.7338   18.9766 C   0  0  0  0  0  0  0  0  0  0  0  0
  -25.6547  -15.1317   19.8562 C   0  0  0  0  0  0  0  0  0  0  0  0
  -24.5915  -15.9584   19.2412 C   0  0  0  0  0  0  0  0  0  0  0  0
  -25.8059  -14.3949   21.3926 S   0  0  0  0  0  0  0  0  0  0  0  0
  -27.1683  -13.2874   20.7466 C   0  0  0  0  0  0  0  0  0  0  0  0
  -27.4765  -13.7908   19.3989 N   0  0  0  0  0  0  0  0  0  0  0  0
  -22.3585  -15.5484   16.7414 H   0  0  0  0  0  0  0  0  0  0  0  0
  -21.8173  -15.9310   15.3277 H   0  0  0  0  0  0  0  0  0  0  0  0
  -24.7347  -14.2321   15.5845 H   0  0  0  0  0  0  0  0  0  0  0  0
  -22.8966  -14.2883   14.2522 H   0  0  0  0  0  0  0  0  0  0  0  0
  -23.0986  -16.6843   13.4708 H   0  0  0  0  0  0  0  0  0  0  0  0
  -24.4947  -17.5766   14.0750 H   0  0  0  0  0  0  0  0  0  0  0  0
  -21.8022  -20.0271   14.4795 H   0  0  0  0  0  0  0  0  0  0  0  0
  -23.1514  -19.5515   13.4479 H   0  0  0  0  0  0  0  0  0  0  0  0
  -21.4548  -20.1685   11.2650 H   0  0  0  0  0  0  0  0  0  0  0  0
  -18.8407  -17.1075   11.5453 H   0  0  0  0  0  0  0  0  0  0  0  0
  -20.1168  -16.9164   13.7567 H   0  0  0  0  0  0  0  0  0  0  0  0
  -24.1978  -19.3066   15.7320 H   0  0  0  0  0  0  0  0  0  0  0  0
  -22.6536  -19.4964   16.5628 H   0  0  0  0  0  0  0  0  0  0  0  0
  -24.4459  -18.2851   17.8027 H   0  0  0  0  0  0  0  0  0  0  0  0
  -22.8696  -17.5054   17.7575 H   0  0  0  0  0  0  0  0  0  0  0  0
  -24.1809  -14.6971   17.6035 H   0  0  0  0  0  0  0  0  0  0  0  0
  -26.9026  -16.1589   17.4398 H   0  0  0  0  0  0  0  0  0  0  0  0
  -26.5277  -14.5424   16.8207 H   0  0  0  0  0  0  0  0  0  0  0  0
  -23.5871  -15.6884   19.5805 H   0  0  0  0  0  0  0  0  0  0  0  0
  -24.7822  -17.0097   19.4732 H   0  0  0  0  0  0  0  0  0  0  0  0
  -26.8019  -12.2576   20.7023 H   0  0  0  0  0  0  0  0  0  0  0  0
  -28.0440  -13.3543   21.3971 H   0  0  0  0  0  0  0  0  0  0  0  0
  -27.6976  -13.0709   18.7181 H   0  0  0  0  0  0  0  0  0  0  0  0
  1  2  1  0
  2  3  1  0
  3  4  1  0
  2  5  1  0
  5  6  1  0
  6  7  1  0
  7  8  1  0
  8  9  1  0
  9 10  2  0
 10 11  1  0
 11 12  1  0
  6 13  1  0
 13 14  1  0
 14 15  1  0
 15 16  1  0
 16 17  1  0
 17 18  1  0
 18 19  2  0
 19 20  1  0
 19 21  1  0
 21 22  1  0
 22 23  1  0
 15  2  1  0
 20 16  1  0
 12  8  2  0
 23 18  1  0
  1 24  1  0
  1 25  1  0
  3 26  1  0
  4 27  1  0
  5 28  1  0
  5 29  1  0
  7 30  1  0
  7 31  1  0
  9 32  1  0
 11 33  1  0
 12 34  1  0
 13 35  1  0
 13 36  1  0
 14 37  1  0
 14 38  1  0
 16 39  1  0
 17 40  1  0
 17 41  1  0
 20 42  1  0
 20 43  1  0
 22 44  1  0
 22 45  1  0
 23 46  1  0
M  END
>  <Energy>  (682) 
47.106976301424311

>  <compound_id>  (682) 
3649

>  <target_id>  (682) 
1

>  <reference_id>  (682) 
178

>  <inspiration_ids>  (682) 
[125, 178]

>  <energy_score>  (682) 
-87.40112907443287

>  <distance_score>  (682) 
1.778621666244806

>  <path>  (682) 
/opt/xchem-fragalysis-2/maxwin/BulkDock/SCRATCH/505734/C3649-P178/C3649-P178.minimised.mol

>  <scratch_subdir>  (682) 
/opt/xchem-fragalysis-2/maxwin/BulkDock/SCRATCH/505734/C3649-P178

>  <fragmenstein_runtime>  (682) 
16.545096158981323

>  <fragmenstein_outcome>  (682) 
too moved

>  <fragmenstein_mode>  (682) 
expansion

>  <fragmenstein_error>  (682) 


$$$$
C3650-P126
     RDKit          3D

 47 49  0  0  0  0  0  0  0  0999 V2000
  -10.8170    5.3201   13.2731 N   0  0  0  0  0  0  0  0  0  0  0  0
  -11.6768    4.6179   12.0031 S   0  0  0  0  0  0  0  0  0  0  0  0
  -10.9779    5.0633   10.8177 O   0  0  0  0  0  0  0  0  0  0  0  0
  -13.0520    4.9901   12.2462 O   0  0  0  0  0  0  0  0  0  0  0  0
  -11.3715    2.8634   12.3181 C   0  0  0  0  0  0  0  0  0  0  0  0
  -12.5920    2.0586   11.9714 C   0  0  0  0  0  0  0  0  0  0  0  0
  -13.5687    1.9321   12.9838 C   0  0  0  0  0  0  0  0  0  0  0  0
  -14.7683    1.2678   12.7671 C   0  0  0  0  0  0  0  0  0  0  0  0
  -15.0276    0.6923   11.5256 C   0  0  0  0  0  0  0  0  0  0  0  0
  -16.3660    0.0859   11.2540 C   0  0  0  0  0  0  0  0  0  0  0  0
  -17.3385    1.0353   11.1219 F   0  0  0  0  0  0  0  0  0  0  0  0
  -16.4593   -0.6882   10.1437 F   0  0  0  0  0  0  0  0  0  0  0  0
  -16.7758   -0.6974   12.2919 F   0  0  0  0  0  0  0  0  0  0  0  0
  -14.0458    0.7635   10.5440 C   0  0  0  0  0  0  0  0  0  0  0  0
  -14.2895    0.1957    9.3502 F   0  0  0  0  0  0  0  0  0  0  0  0
  -12.8112    1.4385   10.7318 C   0  0  0  0  0  0  0  0  0  0  0  0
  -11.9003    1.3777    9.6858 N   0  0  0  0  0  0  0  0  0  0  0  0
  -11.1871    2.5440    9.1498 C   0  0  0  0  0  0  0  0  0  0  0  0
  -10.6286    2.2411    7.7371 C   0  0  0  0  0  0  0  0  0  0  0  0
   -9.8126    1.0236    7.7581 N   0  0  0  0  0  0  0  0  0  0  0  0
   -9.1040    0.7253    6.5280 C   0  0  0  0  0  0  0  0  0  0  0  0
   -7.8092    0.1277    6.9593 C   0  0  0  0  0  0  0  0  0  0  0  0
   -6.7846    0.8190    7.6423 C   0  0  0  0  0  0  0  0  0  0  0  0
   -5.7203    0.0579    7.8908 N   0  0  0  0  0  0  0  0  0  0  0  0
   -6.1000   -1.1527    7.4473 N   0  0  0  0  0  0  0  0  0  0  0  0
   -7.3320   -1.1618    6.8590 C   0  0  0  0  0  0  0  0  0  0  0  0
  -10.6217   -0.1236    8.2095 C   0  0  0  0  0  0  0  0  0  0  0  0
  -11.1521    0.1098    9.6274 C   0  0  0  0  0  0  0  0  0  0  0  0
  -11.5087    5.5969   13.9799 H   0  0  0  0  0  0  0  0  0  0  0  0
  -10.2509    6.0932   12.9204 H   0  0  0  0  0  0  0  0  0  0  0  0
  -11.1565    2.7500   13.3848 H   0  0  0  0  0  0  0  0  0  0  0  0
  -10.4734    2.5573   11.7869 H   0  0  0  0  0  0  0  0  0  0  0  0
  -13.4110    2.3917   13.9567 H   0  0  0  0  0  0  0  0  0  0  0  0
  -15.5142    1.2328   13.5587 H   0  0  0  0  0  0  0  0  0  0  0  0
  -11.8695    3.3967    9.0741 H   0  0  0  0  0  0  0  0  0  0  0  0
  -10.3360    2.8077    9.7810 H   0  0  0  0  0  0  0  0  0  0  0  0
  -10.0235    3.0988    7.4203 H   0  0  0  0  0  0  0  0  0  0  0  0
  -11.4557    2.1369    7.0232 H   0  0  0  0  0  0  0  0  0  0  0  0
   -8.8811    1.6386    5.9616 H   0  0  0  0  0  0  0  0  0  0  0  0
   -9.6645    0.0626    5.8583 H   0  0  0  0  0  0  0  0  0  0  0  0
   -6.7845    1.8560    7.9526 H   0  0  0  0  0  0  0  0  0  0  0  0
   -5.4628   -1.9314    7.5738 H   0  0  0  0  0  0  0  0  0  0  0  0
   -7.7574   -2.0664    6.4489 H   0  0  0  0  0  0  0  0  0  0  0  0
  -10.0217   -1.0408    8.2278 H   0  0  0  0  0  0  0  0  0  0  0  0
  -11.4594   -0.2962    7.5207 H   0  0  0  0  0  0  0  0  0  0  0  0
  -10.3133    0.1481   10.3305 H   0  0  0  0  0  0  0  0  0  0  0  0
  -11.7807   -0.7433    9.9082 H   0  0  0  0  0  0  0  0  0  0  0  0
  1  2  1  0
  2  3  2  0
  2  4  2  0
  2  5  1  0
  5  6  1  0
  6  7  2  0
  7  8  1  0
  8  9  2  0
  9 10  1  0
 10 11  1  0
 10 12  1  0
 10 13  1  0
  9 14  1  0
 14 15  1  0
 14 16  2  0
 16 17  1  0
 17 18  1  0
 18 19  1  0
 19 20  1  0
 20 21  1  0
 21 22  1  0
 22 23  1  0
 23 24  2  0
 24 25  1  0
 25 26  1  0
 20 27  1  0
 27 28  1  0
 16  6  1  0
 28 17  1  0
 26 22  2  0
  1 29  1  0
  1 30  1  0
  5 31  1  0
  5 32  1  0
  7 33  1  0
  8 34  1  0
 18 35  1  0
 18 36  1  0
 19 37  1  0
 19 38  1  0
 21 39  1  0
 21 40  1  0
 23 41  1  0
 25 42  1  0
 26 43  1  0
 27 44  1  0
 27 45  1  0
 28 46  1  0
 28 47  1  0
M  END
>  <Energy>  (683) 
75.116445688732952

>  <compound_id>  (683) 
3650

>  <target_id>  (683) 
1

>  <reference_id>  (683) 
126

>  <inspiration_ids>  (683) 
[126, 17]

>  <energy_score>  (683) 
-80.99539733928441

>  <distance_score>  (683) 
1.2336566018525592

>  <path>  (683) 
/opt/xchem-fragalysis-2/maxwin/BulkDock/SCRATCH/505734/C3650-P126/C3650-P126.minimised.mol

>  <scratch_subdir>  (683) 
/opt/xchem-fragalysis-2/maxwin/BulkDock/SCRATCH/505734/C3650-P126

>  <fragmenstein_runtime>  (683) 
4.762465715408325

>  <fragmenstein_outcome>  (683) 
too moved

>  <fragmenstein_mode>  (683) 
expansion

>  <fragmenstein_error>  (683) 


$$$$
C3650-P17
     RDKit          3D

 47 49  0  0  0  0  0  0  0  0999 V2000
  -10.5274    5.3345   13.3616 N   0  0  0  0  0  0  0  0  0  0  0  0
  -10.6647    3.9811   12.3683 S   0  0  0  0  0  0  0  0  0  0  0  0
   -9.7647    4.2516   11.2714 O   0  0  0  0  0  0  0  0  0  0  0  0
  -10.5356    2.8659   13.2757 O   0  0  0  0  0  0  0  0  0  0  0  0
  -12.3436    4.1585   11.8077 C   0  0  0  0  0  0  0  0  0  0  0  0
  -13.0747    2.8416   11.7664 C   0  0  0  0  0  0  0  0  0  0  0  0
  -14.1924    2.7503   12.6245 C   0  0  0  0  0  0  0  0  0  0  0  0
  -15.0788    1.6913   12.5439 C   0  0  0  0  0  0  0  0  0  0  0  0
  -14.8712    0.6996   11.5916 C   0  0  0  0  0  0  0  0  0  0  0  0
  -15.9064   -0.3500   11.3514 C   0  0  0  0  0  0  0  0  0  0  0  0
  -16.4945   -0.2570   10.1276 F   0  0  0  0  0  0  0  0  0  0  0  0
  -15.4229   -1.6057   11.4611 F   0  0  0  0  0  0  0  0  0  0  0  0
  -16.9324   -0.2845   12.2500 F   0  0  0  0  0  0  0  0  0  0  0  0
  -13.7049    0.7242   10.8209 C   0  0  0  0  0  0  0  0  0  0  0  0
  -13.5322   -0.2740    9.9416 F   0  0  0  0  0  0  0  0  0  0  0  0
  -12.7562    1.7727   10.8968 C   0  0  0  0  0  0  0  0  0  0  0  0
  -11.5544    1.7686   10.1731 N   0  0  0  0  0  0  0  0  0  0  0  0
  -11.4734    2.6768    9.0049 C   0  0  0  0  0  0  0  0  0  0  0  0
  -10.2828    2.3159    8.0823 C   0  0  0  0  0  0  0  0  0  0  0  0
  -10.4903    0.9921    7.4882 N   0  0  0  0  0  0  0  0  0  0  0  0
   -9.4685    0.5190    6.5656 C   0  0  0  0  0  0  0  0  0  0  0  0
   -8.1998    0.0723    7.2090 C   0  0  0  0  0  0  0  0  0  0  0  0
   -7.1609    0.8850    7.7139 C   0  0  0  0  0  0  0  0  0  0  0  0
   -6.0968    0.1844    8.1054 N   0  0  0  0  0  0  0  0  0  0  0  0
   -6.4626   -1.0859    7.8954 N   0  0  0  0  0  0  0  0  0  0  0  0
   -7.7117   -1.2119    7.3627 C   0  0  0  0  0  0  0  0  0  0  0  0
  -10.9647   -0.0018    8.4661 C   0  0  0  0  0  0  0  0  0  0  0  0
  -10.8863    0.4552    9.9446 C   0  0  0  0  0  0  0  0  0  0  0  0
  -11.2968    5.3939   14.0367 H   0  0  0  0  0  0  0  0  0  0  0  0
  -10.2749    6.1806   12.8562 H   0  0  0  0  0  0  0  0  0  0  0  0
  -12.3628    4.6711   10.8443 H   0  0  0  0  0  0  0  0  0  0  0  0
  -12.8396    4.8399   12.5081 H   0  0  0  0  0  0  0  0  0  0  0  0
  -14.4036    3.5475   13.3375 H   0  0  0  0  0  0  0  0  0  0  0  0
  -15.9615    1.6805   13.1800 H   0  0  0  0  0  0  0  0  0  0  0  0
  -12.4062    2.6293    8.4264 H   0  0  0  0  0  0  0  0  0  0  0  0
  -11.3418    3.7127    9.3175 H   0  0  0  0  0  0  0  0  0  0  0  0
   -9.3538    2.3655    8.6605 H   0  0  0  0  0  0  0  0  0  0  0  0
  -10.2198    3.0659    7.2856 H   0  0  0  0  0  0  0  0  0  0  0  0
   -9.2441    1.3030    5.8308 H   0  0  0  0  0  0  0  0  0  0  0  0
   -9.8844   -0.3100    5.9778 H   0  0  0  0  0  0  0  0  0  0  0  0
   -7.1254    1.9650    7.7821 H   0  0  0  0  0  0  0  0  0  0  0  0
   -5.8048   -1.8178    8.1382 H   0  0  0  0  0  0  0  0  0  0  0  0
   -8.1308   -2.1798    7.1265 H   0  0  0  0  0  0  0  0  0  0  0  0
  -10.4388   -0.9578    8.3717 H   0  0  0  0  0  0  0  0  0  0  0  0
  -12.0081   -0.2157    8.2103 H   0  0  0  0  0  0  0  0  0  0  0  0
   -9.8301    0.5765   10.2191 H   0  0  0  0  0  0  0  0  0  0  0  0
  -11.2647   -0.3289   10.6113 H   0  0  0  0  0  0  0  0  0  0  0  0
  1  2  1  0
  2  3  2  0
  2  4  2  0
  2  5  1  0
  5  6  1  0
  6  7  2  0
  7  8  1  0
  8  9  2  0
  9 10  1  0
 10 11  1  0
 10 12  1  0
 10 13  1  0
  9 14  1  0
 14 15  1  0
 14 16  2  0
 16 17  1  0
 17 18  1  0
 18 19  1  0
 19 20  1  0
 20 21  1  0
 21 22  1  0
 22 23  1  0
 23 24  2  0
 24 25  1  0
 25 26  1  0
 20 27  1  0
 27 28  1  0
 16  6  1  0
 28 17  1  0
 26 22  2  0
  1 29  1  0
  1 30  1  0
  5 31  1  0
  5 32  1  0
  7 33  1  0
  8 34  1  0
 18 35  1  0
 18 36  1  0
 19 37  1  0
 19 38  1  0
 21 39  1  0
 21 40  1  0
 23 41  1  0
 25 42  1  0
 26 43  1  0
 27 44  1  0
 27 45  1  0
 28 46  1  0
 28 47  1  0
M  END
>  <Energy>  (684) 
84.965862433114197

>  <compound_id>  (684) 
3650

>  <target_id>  (684) 
1

>  <reference_id>  (684) 
17

>  <inspiration_ids>  (684) 
[126, 17]

>  <energy_score>  (684) 
-71.1459805949043

>  <distance_score>  (684) 
1.2485032964663305

>  <path>  (684) 
/opt/xchem-fragalysis-2/maxwin/BulkDock/SCRATCH/505734/C3650-P17/C3650-P17.minimised.mol

>  <scratch_subdir>  (684) 
/opt/xchem-fragalysis-2/maxwin/BulkDock/SCRATCH/505734/C3650-P17

>  <fragmenstein_runtime>  (684) 
4.18989372253418

>  <fragmenstein_outcome>  (684) 
too moved

>  <fragmenstein_mode>  (684) 
expansion

>  <fragmenstein_error>  (684) 


$$$$
C3654-P126
     RDKit          3D

 48 51  0  0  0  0  0  0  0  0999 V2000
  -16.1221    5.2764   11.2302 F   0  0  0  0  0  0  0  0  0  0  0  0
  -14.8443    5.6836   11.4710 C   0  0  0  0  0  0  0  0  0  0  0  0
  -14.2707    4.9681   12.6857 C   0  0  0  0  0  0  0  0  0  0  0  0
  -12.9475    5.2552   12.8084 F   0  0  0  0  0  0  0  0  0  0  0  0
  -14.8814    5.5124   13.7785 F   0  0  0  0  0  0  0  0  0  0  0  0
  -14.5114    3.4568   12.7474 C   0  0  0  0  0  0  0  0  0  0  0  0
  -13.5840    2.5205   11.9988 C   0  0  0  0  0  0  0  0  0  0  0  0
  -12.8986    2.9498   10.8142 C   0  0  0  0  0  0  0  0  0  0  0  0
  -12.0694    2.1591    9.9876 C   0  0  0  0  0  0  0  0  0  0  0  0
  -11.4471    2.7124    8.8731 N   0  0  0  0  0  0  0  0  0  0  0  0
  -10.1724    3.3658    9.2264 C   0  0  0  0  0  0  0  0  0  0  0  0
   -8.9925    2.7460    8.4622 C   0  0  0  0  0  0  0  0  0  0  0  0
   -9.1089    2.7483    6.9868 N   0  0  0  0  0  0  0  0  0  0  0  0
   -8.5855    3.9778    6.3622 C   0  0  0  0  0  0  0  0  0  0  0  0
   -7.1574    4.2496    6.7207 C   0  0  0  0  0  0  0  0  0  0  0  0
   -6.0071    3.4525    6.4992 C   0  0  0  0  0  0  0  0  0  0  0  0
   -4.8847    4.0142    6.9714 N   0  0  0  0  0  0  0  0  0  0  0  0
   -5.3176    5.1700    7.5026 N   0  0  0  0  0  0  0  0  0  0  0  0
   -6.6582    5.3647    7.3658 C   0  0  0  0  0  0  0  0  0  0  0  0
  -10.5299    2.5575    6.5797 C   0  0  0  0  0  0  0  0  0  0  0  0
  -11.4347    1.8990    7.6420 C   0  0  0  0  0  0  0  0  0  0  0  0
  -11.9393    0.8988   10.5405 C   0  0  0  0  0  0  0  0  0  0  0  0
  -11.0642   -0.0578   10.1143 C   0  0  0  0  0  0  0  0  0  0  0  0
  -11.2403   -1.0791   10.9766 N   0  0  0  0  0  0  0  0  0  0  0  0
  -12.1098   -0.8298   11.9715 N   0  0  0  0  0  0  0  0  0  0  0  0
  -12.5679    0.4061   11.7341 C   0  0  0  0  0  0  0  0  0  0  0  0
  -13.4526    1.1963   12.4822 C   0  0  0  0  0  0  0  0  0  0  0  0
  -14.8783    6.7613   11.6598 H   0  0  0  0  0  0  0  0  0  0  0  0
  -14.2673    5.5383   10.5585 H   0  0  0  0  0  0  0  0  0  0  0  0
  -14.4588    3.1761   13.8061 H   0  0  0  0  0  0  0  0  0  0  0  0
  -15.5426    3.2356   12.4445 H   0  0  0  0  0  0  0  0  0  0  0  0
  -13.0021    3.9755   10.4778 H   0  0  0  0  0  0  0  0  0  0  0  0
   -9.9614    3.3205   10.3032 H   0  0  0  0  0  0  0  0  0  0  0  0
  -10.2551    4.4294    8.9712 H   0  0  0  0  0  0  0  0  0  0  0  0
   -8.0715    3.2283    8.7889 H   0  0  0  0  0  0  0  0  0  0  0  0
   -8.8856    1.6989    8.7714 H   0  0  0  0  0  0  0  0  0  0  0  0
   -9.1953    4.8463    6.6449 H   0  0  0  0  0  0  0  0  0  0  0  0
   -8.6453    3.8815    5.2705 H   0  0  0  0  0  0  0  0  0  0  0  0
   -5.9518    2.4812    6.0214 H   0  0  0  0  0  0  0  0  0  0  0  0
   -4.6426    5.7842    7.9452 H   0  0  0  0  0  0  0  0  0  0  0  0
   -7.1392    6.2540    7.7475 H   0  0  0  0  0  0  0  0  0  0  0  0
  -10.5453    1.9531    5.6653 H   0  0  0  0  0  0  0  0  0  0  0  0
  -10.9885    3.5237    6.3265 H   0  0  0  0  0  0  0  0  0  0  0  0
  -11.0897    0.8756    7.7782 H   0  0  0  0  0  0  0  0  0  0  0  0
  -12.4571    1.8411    7.2486 H   0  0  0  0  0  0  0  0  0  0  0  0
  -10.3305   -0.1325    9.3296 H   0  0  0  0  0  0  0  0  0  0  0  0
  -10.7745   -1.9794   10.9266 H   0  0  0  0  0  0  0  0  0  0  0  0
  -13.9300    0.8318   13.3803 H   0  0  0  0  0  0  0  0  0  0  0  0
  1  2  1  0
  2  3  1  0
  3  4  1  0
  3  5  1  0
  3  6  1  0
  6  7  1  0
  7  8  1  0
  8  9  2  0
  9 10  1  0
 10 11  1  0
 11 12  1  0
 12 13  1  0
 13 14  1  0
 14 15  1  0
 15 16  1  0
 16 17  2  0
 17 18  1  0
 18 19  1  0
 13 20  1  0
 20 21  1  0
  9 22  1  0
 22 23  2  0
 23 24  1  0
 24 25  1  0
 25 26  2  0
 26 27  1  0
 27  7  2  0
 21 10  1  0
 26 22  1  0
 19 15  2  0
  2 28  1  0
  2 29  1  0
  6 30  1  0
  6 31  1  0
  8 32  1  0
 11 33  1  0
 11 34  1  0
 12 35  1  0
 12 36  1  0
 14 37  1  0
 14 38  1  0
 16 39  1  0
 18 40  1  0
 19 41  1  0
 20 42  1  0
 20 43  1  0
 21 44  1  0
 21 45  1  0
 23 46  1  0
 24 47  1  0
 27 48  1  0
M  END
>  <Energy>  (685) 
166.70786387853275

>  <compound_id>  (685) 
3654

>  <target_id>  (685) 
1

>  <reference_id>  (685) 
126

>  <inspiration_ids>  (685) 
[126, 37]

>  <energy_score>  (685) 
-34.42965126686528

>  <distance_score>  (685) 
1.803514981286419

>  <path>  (685) 
/opt/xchem-fragalysis-2/maxwin/BulkDock/SCRATCH/505734/C3654-P126/C3654-P126.minimised.mol

>  <scratch_subdir>  (685) 
/opt/xchem-fragalysis-2/maxwin/BulkDock/SCRATCH/505734/C3654-P126

>  <fragmenstein_runtime>  (685) 
2.1900572776794434

>  <fragmenstein_outcome>  (685) 
too moved

>  <fragmenstein_mode>  (685) 
expansion

>  <fragmenstein_error>  (685) 


$$$$
C3654-P37
     RDKit          3D

 48 51  0  0  0  0  0  0  0  0999 V2000
  -13.6877    6.4508    9.9372 F   0  0  0  0  0  0  0  0  0  0  0  0
  -12.9177    6.3813   11.0584 C   0  0  0  0  0  0  0  0  0  0  0  0
  -13.7022    5.8039   12.2210 C   0  0  0  0  0  0  0  0  0  0  0  0
  -12.8412    5.5956   13.2474 F   0  0  0  0  0  0  0  0  0  0  0  0
  -14.5882    6.7559   12.6440 F   0  0  0  0  0  0  0  0  0  0  0  0
  -14.5096    4.5366   11.9294 C   0  0  0  0  0  0  0  0  0  0  0  0
  -13.7259    3.2657   11.6753 C   0  0  0  0  0  0  0  0  0  0  0  0
  -12.9626    3.1406   10.4653 C   0  0  0  0  0  0  0  0  0  0  0  0
  -12.1224    2.0565   10.0884 C   0  0  0  0  0  0  0  0  0  0  0  0
  -11.3308    2.1474    8.9516 N   0  0  0  0  0  0  0  0  0  0  0  0
  -10.3940    3.2925    8.9804 C   0  0  0  0  0  0  0  0  0  0  0  0
   -8.9675    2.8696    8.5826 C   0  0  0  0  0  0  0  0  0  0  0  0
   -8.8419    2.1808    7.2779 N   0  0  0  0  0  0  0  0  0  0  0  0
   -8.5223    3.0829    6.1632 C   0  0  0  0  0  0  0  0  0  0  0  0
   -7.1958    3.7522    6.3574 C   0  0  0  0  0  0  0  0  0  0  0  0
   -5.9031    3.1714    6.4065 C   0  0  0  0  0  0  0  0  0  0  0  0
   -4.9308    4.0742    6.5991 N   0  0  0  0  0  0  0  0  0  0  0  0
   -5.6017    5.2356    6.6808 N   0  0  0  0  0  0  0  0  0  0  0  0
   -6.9486    5.1011    6.5244 C   0  0  0  0  0  0  0  0  0  0  0  0
  -10.0753    1.4001    6.9805 C   0  0  0  0  0  0  0  0  0  0  0  0
  -10.8340    0.9541    8.2531 C   0  0  0  0  0  0  0  0  0  0  0  0
  -12.2009    1.0777   11.0718 C   0  0  0  0  0  0  0  0  0  0  0  0
  -11.4975   -0.0920   11.1163 C   0  0  0  0  0  0  0  0  0  0  0  0
  -11.7930   -0.6096   12.3290 N   0  0  0  0  0  0  0  0  0  0  0  0
  -12.6583    0.0896   13.0648 N   0  0  0  0  0  0  0  0  0  0  0  0
  -12.9470    1.1527   12.3104 C   0  0  0  0  0  0  0  0  0  0  0  0
  -13.7598    2.2391   12.6332 C   0  0  0  0  0  0  0  0  0  0  0  0
  -12.5900    7.3985   11.2936 H   0  0  0  0  0  0  0  0  0  0  0  0
  -12.0244    5.7933   10.8322 H   0  0  0  0  0  0  0  0  0  0  0  0
  -15.1637    4.3630   12.7930 H   0  0  0  0  0  0  0  0  0  0  0  0
  -15.1932    4.7103   11.0887 H   0  0  0  0  0  0  0  0  0  0  0  0
  -13.0350    3.9556    9.7407 H   0  0  0  0  0  0  0  0  0  0  0  0
  -10.3367    3.7557    9.9745 H   0  0  0  0  0  0  0  0  0  0  0  0
  -10.7596    4.0581    8.2853 H   0  0  0  0  0  0  0  0  0  0  0  0
   -8.3063    3.7374    8.6644 H   0  0  0  0  0  0  0  0  0  0  0  0
   -8.6049    2.1633    9.3407 H   0  0  0  0  0  0  0  0  0  0  0  0
   -9.3073    3.8395    6.0356 H   0  0  0  0  0  0  0  0  0  0  0  0
   -8.4705    2.5088    5.2291 H   0  0  0  0  0  0  0  0  0  0  0  0
   -5.6398    2.1244    6.3130 H   0  0  0  0  0  0  0  0  0  0  0  0
   -5.0760    6.0878    6.8423 H   0  0  0  0  0  0  0  0  0  0  0  0
   -7.6069    5.9572    6.5604 H   0  0  0  0  0  0  0  0  0  0  0  0
   -9.7902    0.5159    6.3994 H   0  0  0  0  0  0  0  0  0  0  0  0
  -10.7660    1.9907    6.3632 H   0  0  0  0  0  0  0  0  0  0  0  0
  -10.1314    0.3829    8.8642 H   0  0  0  0  0  0  0  0  0  0  0  0
  -11.6715    0.3063    7.9709 H   0  0  0  0  0  0  0  0  0  0  0  0
  -10.8092   -0.6015   10.4648 H   0  0  0  0  0  0  0  0  0  0  0  0
  -11.4440   -1.4674   12.7214 H   0  0  0  0  0  0  0  0  0  0  0  0
  -14.2885    2.3024   13.5718 H   0  0  0  0  0  0  0  0  0  0  0  0
  1  2  1  0
  2  3  1  0
  3  4  1  0
  3  5  1  0
  3  6  1  0
  6  7  1  0
  7  8  1  0
  8  9  2  0
  9 10  1  0
 10 11  1  0
 11 12  1  0
 12 13  1  0
 13 14  1  0
 14 15  1  0
 15 16  1  0
 16 17  2  0
 17 18  1  0
 18 19  1  0
 13 20  1  0
 20 21  1  0
  9 22  1  0
 22 23  2  0
 23 24  1  0
 24 25  1  0
 25 26  2  0
 26 27  1  0
 27  7  2  0
 21 10  1  0
 26 22  1  0
 19 15  2  0
  2 28  1  0
  2 29  1  0
  6 30  1  0
  6 31  1  0
  8 32  1  0
 11 33  1  0
 11 34  1  0
 12 35  1  0
 12 36  1  0
 14 37  1  0
 14 38  1  0
 16 39  1  0
 18 40  1  0
 19 41  1  0
 20 42  1  0
 20 43  1  0
 21 44  1  0
 21 45  1  0
 23 46  1  0
 24 47  1  0
 27 48  1  0
M  END
>  <Energy>  (686) 
161.33809666443452

>  <compound_id>  (686) 
3654

>  <target_id>  (686) 
1

>  <reference_id>  (686) 
37

>  <inspiration_ids>  (686) 
[126, 37]

>  <energy_score>  (686) 
-39.79941848096149

>  <distance_score>  (686) 
2.029383453507398

>  <path>  (686) 
/opt/xchem-fragalysis-2/maxwin/BulkDock/SCRATCH/505734/C3654-P37/C3654-P37.minimised.mol

>  <scratch_subdir>  (686) 
/opt/xchem-fragalysis-2/maxwin/BulkDock/SCRATCH/505734/C3654-P37

>  <fragmenstein_runtime>  (686) 
2.6084372997283936

>  <fragmenstein_outcome>  (686) 
too moved

>  <fragmenstein_mode>  (686) 
expansion

>  <fragmenstein_error>  (686) 


$$$$
C3657-P126
     RDKit          3D

 47 49  0  0  0  0  0  0  0  0999 V2000
   -5.8097    0.8165    6.0916 C   0  0  0  0  0  0  0  0  0  0  0  0
   -5.3630    0.0767    7.2643 N   0  0  0  0  0  0  0  0  0  0  0  0
   -6.0691   -1.1606    7.4742 N   0  0  0  0  0  0  0  0  0  0  0  0
   -7.5186   -1.0475    7.6647 C   0  0  0  0  0  0  0  0  0  0  0  0
   -8.3104   -1.0767    6.3488 C   0  0  0  0  0  0  0  0  0  0  0  0
   -9.1426    0.2002    6.3465 C   0  0  0  0  0  0  0  0  0  0  0  0
   -9.4529    0.4564    7.8309 C   0  0  0  0  0  0  0  0  0  0  0  0
   -9.9018    1.9053    8.1385 C   0  0  0  0  0  0  0  0  0  0  0  0
  -10.4675    2.0620    9.5653 C   0  0  0  0  0  0  0  0  0  0  0  0
  -11.5624    1.0976    9.7410 N   0  0  0  0  0  0  0  0  0  0  0  0
  -12.4388    1.2261   10.8255 C   0  0  0  0  0  0  0  0  0  0  0  0
  -12.0817    1.7836   12.0508 C   0  0  0  0  0  0  0  0  0  0  0  0
  -12.9676    1.7573   13.1287 C   0  0  0  0  0  0  0  0  0  0  0  0
  -14.2499    1.2383   12.9837 C   0  0  0  0  0  0  0  0  0  0  0  0
  -14.6575    0.7156   11.7540 C   0  0  0  0  0  0  0  0  0  0  0  0
  -16.0545    0.1813   11.5946 C   0  0  0  0  0  0  0  0  0  0  0  0
  -17.0042    1.1339   11.8182 F   0  0  0  0  0  0  0  0  0  0  0  0
  -16.3188   -0.8151   12.4847 F   0  0  0  0  0  0  0  0  0  0  0  0
  -16.3263   -0.3310   10.3636 F   0  0  0  0  0  0  0  0  0  0  0  0
  -13.7400    0.7032   10.6945 C   0  0  0  0  0  0  0  0  0  0  0  0
  -11.1194   -0.2963    9.6130 C   0  0  0  0  0  0  0  0  0  0  0  0
  -10.5895   -0.5122    8.2139 C   0  0  0  0  0  0  0  0  0  0  0  0
   -8.0815    0.1319    8.4833 C   0  0  0  0  0  0  0  0  0  0  0  0
   -6.6021    1.5133    6.3699 H   0  0  0  0  0  0  0  0  0  0  0  0
   -6.1532    0.1843    5.2741 H   0  0  0  0  0  0  0  0  0  0  0  0
   -5.0295    1.4509    5.6710 H   0  0  0  0  0  0  0  0  0  0  0  0
   -4.3487   -0.0791    7.2215 H   0  0  0  0  0  0  0  0  0  0  0  0
   -5.8747   -1.8713    6.7653 H   0  0  0  0  0  0  0  0  0  0  0  0
   -7.7984   -1.9625    8.2026 H   0  0  0  0  0  0  0  0  0  0  0  0
   -7.7036   -1.1683    5.4446 H   0  0  0  0  0  0  0  0  0  0  0  0
   -8.9658   -1.9572    6.3358 H   0  0  0  0  0  0  0  0  0  0  0  0
  -10.0437    0.0833    5.7340 H   0  0  0  0  0  0  0  0  0  0  0  0
   -8.5867    1.0361    5.9142 H   0  0  0  0  0  0  0  0  0  0  0  0
  -10.6830    2.1921    7.4215 H   0  0  0  0  0  0  0  0  0  0  0  0
   -9.0732    2.6086    7.9933 H   0  0  0  0  0  0  0  0  0  0  0  0
   -9.6766    1.8964   10.3051 H   0  0  0  0  0  0  0  0  0  0  0  0
  -10.8387    3.0870    9.6829 H   0  0  0  0  0  0  0  0  0  0  0  0
  -11.0973    2.2120   12.1997 H   0  0  0  0  0  0  0  0  0  0  0  0
  -12.6503    2.1438   14.0896 H   0  0  0  0  0  0  0  0  0  0  0  0
  -14.9305    1.2509   13.8318 H   0  0  0  0  0  0  0  0  0  0  0  0
  -14.0387    0.2844    9.7331 H   0  0  0  0  0  0  0  0  0  0  0  0
  -11.9489   -0.9951    9.7628 H   0  0  0  0  0  0  0  0  0  0  0  0
  -10.3556   -0.5367   10.3601 H   0  0  0  0  0  0  0  0  0  0  0  0
  -11.4251   -0.3875    7.5105 H   0  0  0  0  0  0  0  0  0  0  0  0
  -10.2662   -1.5522    8.1206 H   0  0  0  0  0  0  0  0  0  0  0  0
   -7.4336    1.0117    8.4284 H   0  0  0  0  0  0  0  0  0  0  0  0
   -8.1678   -0.1178    9.5439 H   0  0  0  0  0  0  0  0  0  0  0  0
  1  2  1  0
  2  3  1  0
  3  4  1  0
  4  5  1  0
  5  6  1  0
  6  7  1  0
  7  8  1  0
  8  9  1  0
  9 10  1  0
 10 11  1  0
 11 12  2  0
 12 13  1  0
 13 14  2  0
 14 15  1  0
 15 16  1  0
 16 17  1  0
 16 18  1  0
 16 19  1  0
 15 20  2  0
 10 21  1  0
 21 22  1  0
  7 23  1  0
 23  4  1  0
 22  7  1  0
 20 11  1  0
  1 24  1  0
  1 25  1  0
  1 26  1  0
  2 27  1  0
  3 28  1  0
  4 29  1  0
  5 30  1  0
  5 31  1  0
  6 32  1  0
  6 33  1  0
  8 34  1  0
  8 35  1  0
  9 36  1  0
  9 37  1  0
 12 38  1  0
 13 39  1  0
 14 40  1  0
 20 41  1  0
 21 42  1  0
 21 43  1  0
 22 44  1  0
 22 45  1  0
 23 46  1  0
 23 47  1  0
M  END
>  <Energy>  (687) 
114.06801029688559

>  <compound_id>  (687) 
3657

>  <target_id>  (687) 
1

>  <reference_id>  (687) 
126

>  <inspiration_ids>  (687) 
[126, 65]

>  <energy_score>  (687) 
-31.362050655869268

>  <distance_score>  (687) 
1.6268311487883627

>  <path>  (687) 
/opt/xchem-fragalysis-2/maxwin/BulkDock/SCRATCH/505734/C3657-P126/C3657-P126.minimised.mol

>  <scratch_subdir>  (687) 
/opt/xchem-fragalysis-2/maxwin/BulkDock/SCRATCH/505734/C3657-P126

>  <fragmenstein_runtime>  (687) 
14.475279569625854

>  <fragmenstein_outcome>  (687) 
too moved

>  <fragmenstein_mode>  (687) 
expansion

>  <fragmenstein_error>  (687) 


$$$$
C3657-P65
     RDKit          3D

 47 49  0  0  0  0  0  0  0  0999 V2000
   -3.8685   -0.2260    7.0403 C   0  0  0  0  0  0  0  0  0  0  0  0
   -5.0498   -0.9634    7.4766 N   0  0  0  0  0  0  0  0  0  0  0  0
   -6.0930   -0.7349    6.5074 N   0  0  0  0  0  0  0  0  0  0  0  0
   -7.4170   -1.0875    7.0550 C   0  0  0  0  0  0  0  0  0  0  0  0
   -8.4244   -1.0855    5.9023 C   0  0  0  0  0  0  0  0  0  0  0  0
   -9.1728    0.2337    6.0362 C   0  0  0  0  0  0  0  0  0  0  0  0
   -9.3723    0.4012    7.5500 C   0  0  0  0  0  0  0  0  0  0  0  0
   -9.7182    1.8561    7.9637 C   0  0  0  0  0  0  0  0  0  0  0  0
  -10.1593    1.9962    9.4364 C   0  0  0  0  0  0  0  0  0  0  0  0
  -11.2845    1.0887    9.6844 N   0  0  0  0  0  0  0  0  0  0  0  0
  -12.1334    1.2796   10.7815 C   0  0  0  0  0  0  0  0  0  0  0  0
  -11.7914    2.0238   11.9150 C   0  0  0  0  0  0  0  0  0  0  0  0
  -12.6780    2.1606   12.9907 C   0  0  0  0  0  0  0  0  0  0  0  0
  -13.9435    1.5798   12.9378 C   0  0  0  0  0  0  0  0  0  0  0  0
  -14.3413    0.8638   11.8038 C   0  0  0  0  0  0  0  0  0  0  0  0
  -15.7256    0.2758   11.7229 C   0  0  0  0  0  0  0  0  0  0  0  0
  -16.6798    1.1111   12.2291 F   0  0  0  0  0  0  0  0  0  0  0  0
  -15.8420   -0.8786   12.4374 F   0  0  0  0  0  0  0  0  0  0  0  0
  -16.1366   -0.0206   10.4593 F   0  0  0  0  0  0  0  0  0  0  0  0
  -13.4240    0.7108   10.7505 C   0  0  0  0  0  0  0  0  0  0  0  0
  -10.9359   -0.3227    9.4645 C   0  0  0  0  0  0  0  0  0  0  0  0
  -10.5176   -0.5276    8.0140 C   0  0  0  0  0  0  0  0  0  0  0  0
   -7.9722   -0.0333    8.0430 C   0  0  0  0  0  0  0  0  0  0  0  0
   -3.0628   -0.3917    7.7603 H   0  0  0  0  0  0  0  0  0  0  0  0
   -4.0589    0.8512    6.9881 H   0  0  0  0  0  0  0  0  0  0  0  0
   -3.5211   -0.5828    6.0657 H   0  0  0  0  0  0  0  0  0  0  0  0
   -5.3147   -0.6006    8.4027 H   0  0  0  0  0  0  0  0  0  0  0  0
   -5.9228   -1.3234    5.6859 H   0  0  0  0  0  0  0  0  0  0  0  0
   -7.3890   -2.0857    7.5086 H   0  0  0  0  0  0  0  0  0  0  0  0
   -9.1126   -1.9332    6.0047 H   0  0  0  0  0  0  0  0  0  0  0  0
   -7.9711   -1.1844    4.9094 H   0  0  0  0  0  0  0  0  0  0  0  0
  -10.1153    0.2214    5.4789 H   0  0  0  0  0  0  0  0  0  0  0  0
   -8.5627    1.0524    5.6331 H   0  0  0  0  0  0  0  0  0  0  0  0
  -10.5385    2.2123    7.3254 H   0  0  0  0  0  0  0  0  0  0  0  0
   -8.8690    2.5238    7.7749 H   0  0  0  0  0  0  0  0  0  0  0  0
   -9.3223    1.7714   10.1082 H   0  0  0  0  0  0  0  0  0  0  0  0
  -10.4595    3.0379    9.6017 H   0  0  0  0  0  0  0  0  0  0  0  0
  -10.8160    2.4949   11.9934 H   0  0  0  0  0  0  0  0  0  0  0  0
  -12.3805    2.7360   13.8668 H   0  0  0  0  0  0  0  0  0  0  0  0
  -14.6247    1.7154   13.7755 H   0  0  0  0  0  0  0  0  0  0  0  0
  -13.7339    0.1627    9.8592 H   0  0  0  0  0  0  0  0  0  0  0  0
  -11.7871   -0.9823    9.6572 H   0  0  0  0  0  0  0  0  0  0  0  0
  -10.1339   -0.6233   10.1499 H   0  0  0  0  0  0  0  0  0  0  0  0
  -11.3975   -0.3538    7.3791 H   0  0  0  0  0  0  0  0  0  0  0  0
  -10.2466   -1.5809    7.8842 H   0  0  0  0  0  0  0  0  0  0  0  0
   -7.3158    0.8436    8.0468 H   0  0  0  0  0  0  0  0  0  0  0  0
   -8.0161   -0.4417    9.0532 H   0  0  0  0  0  0  0  0  0  0  0  0
  1  2  1  0
  2  3  1  0
  3  4  1  0
  4  5  1  0
  5  6  1  0
  6  7  1  0
  7  8  1  0
  8  9  1  0
  9 10  1  0
 10 11  1  0
 11 12  2  0
 12 13  1  0
 13 14  2  0
 14 15  1  0
 15 16  1  0
 16 17  1  0
 16 18  1  0
 16 19  1  0
 15 20  2  0
 10 21  1  0
 21 22  1  0
  7 23  1  0
 23  4  1  0
 22  7  1  0
 20 11  1  0
  1 24  1  0
  1 25  1  0
  1 26  1  0
  2 27  1  0
  3 28  1  0
  4 29  1  0
  5 30  1  0
  5 31  1  0
  6 32  1  0
  6 33  1  0
  8 34  1  0
  8 35  1  0
  9 36  1  0
  9 37  1  0
 12 38  1  0
 13 39  1  0
 14 40  1  0
 20 41  1  0
 21 42  1  0
 21 43  1  0
 22 44  1  0
 22 45  1  0
 23 46  1  0
 23 47  1  0
M  END
>  <Energy>  (688) 
101.14314033423557

>  <compound_id>  (688) 
3657

>  <target_id>  (688) 
1

>  <reference_id>  (688) 
65

>  <inspiration_ids>  (688) 
[126, 65]

>  <energy_score>  (688) 
-44.286920618517286

>  <distance_score>  (688) 
1.594234296034373

>  <path>  (688) 
/opt/xchem-fragalysis-2/maxwin/BulkDock/SCRATCH/505734/C3657-P65/C3657-P65.minimised.mol

>  <scratch_subdir>  (688) 
/opt/xchem-fragalysis-2/maxwin/BulkDock/SCRATCH/505734/C3657-P65

>  <fragmenstein_runtime>  (688) 
14.872419118881226

>  <fragmenstein_outcome>  (688) 
too moved

>  <fragmenstein_mode>  (688) 
expansion

>  <fragmenstein_error>  (688) 


$$$$
C2739-P126
     RDKit          3D

 70 76  0  0  0  0  0  0  0  0999 V2000
  -11.1628   -1.6450   11.3216 F   0  0  0  0  0  0  0  0  0  0  0  0
  -11.1073   -0.5510   10.5377 C   0  0  0  0  0  0  0  0  0  0  0  0
   -9.8118   -0.1243   10.5821 F   0  0  0  0  0  0  0  0  0  0  0  0
  -11.3694   -0.9079    9.1751 O   0  0  0  0  0  0  0  0  0  0  0  0
  -10.0917   -1.1184    8.5674 C   0  0  0  0  0  0  0  0  0  0  0  0
  -10.0936   -1.6877    7.2461 O   0  0  0  0  0  0  0  0  0  0  0  0
   -8.8608   -1.3195    6.7389 C   0  0  0  0  0  0  0  0  0  0  0  0
   -7.7031   -2.0443    7.0166 C   0  0  0  0  0  0  0  0  0  0  0  0
   -6.4471   -1.4535    6.7901 C   0  0  0  0  0  0  0  0  0  0  0  0
   -6.3898   -0.1392    6.2716 C   0  0  0  0  0  0  0  0  0  0  0  0
   -5.3404    0.7207    5.9702 N   0  0  0  0  0  0  0  0  0  0  0  0
   -5.8902    1.8134    5.4913 C   0  0  0  0  0  0  0  0  0  0  0  0
   -5.1518    3.2843    4.9695 S   0  0  0  0  0  0  0  0  0  0  0  0
   -4.6141    2.8533    3.3715 C   0  0  0  0  0  0  0  0  0  0  0  0
   -3.2932    2.8972    3.0880 C   0  0  0  0  0  0  0  0  0  0  0  0
   -2.8128    2.5602    1.7573 C   0  0  0  0  0  0  0  0  0  0  0  0
   -3.6643    2.2369    0.7685 C   0  0  0  0  0  0  0  0  0  0  0  0
   -5.0601    2.2344    1.0245 C   0  0  0  0  0  0  0  0  0  0  0  0
   -6.0941    2.0045    0.2443 N   0  0  0  0  0  0  0  0  0  0  0  0
   -7.2307    2.1744    0.9952 N   0  0  0  0  0  0  0  0  0  0  0  0
   -6.8582    2.5048    2.2112 C   0  0  0  0  0  0  0  0  0  0  0  0
   -5.4927    2.5437    2.3130 N   0  0  0  0  0  0  0  0  0  0  0  0
   -7.2348    1.7569    5.5883 N   0  0  0  0  0  0  0  0  0  0  0  0
   -7.5793    0.4998    5.9828 C   0  0  0  0  0  0  0  0  0  0  0  0
   -8.8266   -0.0626    6.1476 C   0  0  0  0  0  0  0  0  0  0  0  0
  -12.0531    0.5270   10.9834 C   0  0  0  0  0  0  0  0  0  0  0  0
  -13.3806    0.3237   11.3667 C   0  0  0  0  0  0  0  0  0  0  0  0
  -14.2601    1.3923   11.3674 C   0  0  0  0  0  0  0  0  0  0  0  0
  -13.8217    2.6048   10.8414 C   0  0  0  0  0  0  0  0  0  0  0  0
  -12.4885    2.7870   10.4440 C   0  0  0  0  0  0  0  0  0  0  0  0
  -12.1463    3.7761    9.5088 N   0  0  0  0  0  0  0  0  0  0  0  0
  -10.7573    4.3055    9.5116 C   0  0  0  0  0  0  0  0  0  0  0  0
   -9.7805    3.6226    8.5044 C   0  0  0  0  0  0  0  0  0  0  0  0
  -10.3136    3.3443    7.1444 N   0  0  0  0  0  0  0  0  0  0  0  0
  -10.5754    4.5912    6.3979 C   0  0  0  0  0  0  0  0  0  0  0  0
   -9.3433    5.0379    5.6925 C   0  0  0  0  0  0  0  0  0  0  0  0
   -9.0379    4.8496    4.3255 C   0  0  0  0  0  0  0  0  0  0  0  0
   -7.8591    5.3720    3.9853 N   0  0  0  0  0  0  0  0  0  0  0  0
   -7.4383    5.9710    5.1112 N   0  0  0  0  0  0  0  0  0  0  0  0
   -8.2815    5.7821    6.1664 C   0  0  0  0  0  0  0  0  0  0  0  0
  -11.5834    2.5980    7.3372 C   0  0  0  0  0  0  0  0  0  0  0  0
  -12.6396    3.3623    8.1670 C   0  0  0  0  0  0  0  0  0  0  0  0
  -11.5826    1.8055   10.7438 C   0  0  0  0  0  0  0  0  0  0  0  0
   -9.4889   -1.7875    9.1867 H   0  0  0  0  0  0  0  0  0  0  0  0
   -9.6164   -0.1264    8.5374 H   0  0  0  0  0  0  0  0  0  0  0  0
   -7.7727   -3.0271    7.4738 H   0  0  0  0  0  0  0  0  0  0  0  0
   -5.5387   -1.9833    7.0543 H   0  0  0  0  0  0  0  0  0  0  0  0
   -2.5451    3.1906    3.8166 H   0  0  0  0  0  0  0  0  0  0  0  0
   -1.7401    2.5790    1.5855 H   0  0  0  0  0  0  0  0  0  0  0  0
   -3.3170    1.9858   -0.2272 H   0  0  0  0  0  0  0  0  0  0  0  0
   -7.5262    2.7348    3.0210 H   0  0  0  0  0  0  0  0  0  0  0  0
   -7.8755    2.5113    5.3855 H   0  0  0  0  0  0  0  0  0  0  0  0
   -9.7379    0.4930    5.9545 H   0  0  0  0  0  0  0  0  0  0  0  0
  -13.7582   -0.6689   11.5601 H   0  0  0  0  0  0  0  0  0  0  0  0
  -15.3025    1.2558   11.6377 H   0  0  0  0  0  0  0  0  0  0  0  0
  -14.5402    3.4022   10.6653 H   0  0  0  0  0  0  0  0  0  0  0  0
  -10.8296    5.3682    9.2498 H   0  0  0  0  0  0  0  0  0  0  0  0
  -10.3275    4.2899   10.5215 H   0  0  0  0  0  0  0  0  0  0  0  0
   -9.4361    2.6659    8.9111 H   0  0  0  0  0  0  0  0  0  0  0  0
   -8.8682    4.2257    8.4400 H   0  0  0  0  0  0  0  0  0  0  0  0
  -11.3368    4.4111    5.6263 H   0  0  0  0  0  0  0  0  0  0  0  0
  -10.9636    5.4028    7.0230 H   0  0  0  0  0  0  0  0  0  0  0  0
   -9.6250    4.3423    3.5689 H   0  0  0  0  0  0  0  0  0  0  0  0
   -6.5586    6.4781    5.0898 H   0  0  0  0  0  0  0  0  0  0  0  0
   -8.0630    6.2003    7.1386 H   0  0  0  0  0  0  0  0  0  0  0  0
  -11.3597    1.6359    7.8114 H   0  0  0  0  0  0  0  0  0  0  0  0
  -12.0071    2.3458    6.3570 H   0  0  0  0  0  0  0  0  0  0  0  0
  -13.5548    2.7579    8.2194 H   0  0  0  0  0  0  0  0  0  0  0  0
  -12.9389    4.2740    7.6356 H   0  0  0  0  0  0  0  0  0  0  0  0
  -10.5376    1.9296   10.4913 H   0  0  0  0  0  0  0  0  0  0  0  0
  1  2  1  0
  2  3  1  0
  2  4  1  0
  4  5  1  0
  5  6  1  0
  6  7  1  0
  7  8  2  0
  8  9  1  0
  9 10  2  0
 10 11  1  0
 11 12  2  0
 12 13  1  0
 13 14  1  0
 14 15  2  0
 15 16  1  0
 16 17  2  0
 17 18  1  0
 18 19  2  0
 19 20  1  0
 20 21  2  0
 21 22  1  0
 12 23  1  0
 23 24  1  0
 24 25  2  0
  2 26  1  0
 26 27  2  0
 27 28  1  0
 28 29  2  0
 29 30  1  0
 30 31  1  0
 31 32  1  0
 32 33  1  0
 33 34  1  0
 34 35  1  0
 35 36  1  0
 36 37  1  0
 37 38  2  0
 38 39  1  0
 39 40  1  0
 34 41  1  0
 41 42  1  0
 30 43  2  0
 25  7  1  0
 43 26  1  0
 24 10  1  0
 42 31  1  0
 22 14  1  0
 40 36  2  0
 22 18  1  0
  5 44  1  0
  5 45  1  0
  8 46  1  0
  9 47  1  0
 15 48  1  0
 16 49  1  0
 17 50  1  0
 21 51  1  0
 23 52  1  0
 25 53  1  0
 27 54  1  0
 28 55  1  0
 29 56  1  0
 32 57  1  0
 32 58  1  0
 33 59  1  0
 33 60  1  0
 35 61  1  0
 35 62  1  0
 37 63  1  0
 39 64  1  0
 40 65  1  0
 41 66  1  0
 41 67  1  0
 42 68  1  0
 42 69  1  0
 43 70  1  0
M  END
>  <Energy>  (689) 
141.85415268913678

>  <compound_id>  (689) 
2739

>  <target_id>  (689) 
1

>  <reference_id>  (689) 
126

>  <inspiration_ids>  (689) 
[126, 73]

>  <energy_score>  (689) 
-52.594966582834445

>  <distance_score>  (689) 
2.6122185646597766

>  <path>  (689) 
/opt/xchem-fragalysis-2/maxwin/BulkDock/SCRATCH/505734/C2739-P126/C2739-P126.minimised.mol

>  <scratch_subdir>  (689) 
/opt/xchem-fragalysis-2/maxwin/BulkDock/SCRATCH/505734/C2739-P126

>  <fragmenstein_runtime>  (689) 
30.0790593624115

>  <fragmenstein_outcome>  (689) 
too moved

>  <fragmenstein_mode>  (689) 
expansion

>  <fragmenstein_error>  (689) 


$$$$
C2739-P73
     RDKit          3D

 70 76  0  0  0  0  0  0  0  0999 V2000
   -9.8723    3.9776    9.5463 F   0  0  0  0  0  0  0  0  0  0  0  0
   -9.8549    3.2148   10.6777 C   0  0  0  0  0  0  0  0  0  0  0  0
   -9.5469    4.0775   11.6870 F   0  0  0  0  0  0  0  0  0  0  0  0
   -8.7625    2.3047   10.5786 O   0  0  0  0  0  0  0  0  0  0  0  0
   -8.3590    1.8225    9.2962 C   0  0  0  0  0  0  0  0  0  0  0  0
   -8.2238    0.3875    9.3778 O   0  0  0  0  0  0  0  0  0  0  0  0
   -7.5850   -0.3012    8.3753 C   0  0  0  0  0  0  0  0  0  0  0  0
   -8.1330   -1.5572    8.0613 C   0  0  0  0  0  0  0  0  0  0  0  0
   -7.6019   -2.3795    7.0566 C   0  0  0  0  0  0  0  0  0  0  0  0
   -6.5168   -1.8916    6.3303 C   0  0  0  0  0  0  0  0  0  0  0  0
   -5.9684   -2.3795    5.1758 N   0  0  0  0  0  0  0  0  0  0  0  0
   -5.1604   -1.4310    4.7822 C   0  0  0  0  0  0  0  0  0  0  0  0
   -4.5724   -1.2390    3.1725 S   0  0  0  0  0  0  0  0  0  0  0  0
   -5.8787   -0.2952    2.5219 C   0  0  0  0  0  0  0  0  0  0  0  0
   -5.6259    0.9510    2.0654 C   0  0  0  0  0  0  0  0  0  0  0  0
   -6.7064    1.7655    1.5325 C   0  0  0  0  0  0  0  0  0  0  0  0
   -7.9676    1.3027    1.4718 C   0  0  0  0  0  0  0  0  0  0  0  0
   -8.2516   -0.0122    1.9246 C   0  0  0  0  0  0  0  0  0  0  0  0
   -9.3739   -0.6942    1.9893 N   0  0  0  0  0  0  0  0  0  0  0  0
   -9.0759   -1.9416    2.4798 N   0  0  0  0  0  0  0  0  0  0  0  0
   -7.7812   -1.9867    2.7076 C   0  0  0  0  0  0  0  0  0  0  0  0
   -7.1976   -0.7798    2.4166 N   0  0  0  0  0  0  0  0  0  0  0  0
   -4.9450   -0.4978    5.7589 N   0  0  0  0  0  0  0  0  0  0  0  0
   -5.9352   -0.6800    6.6970 C   0  0  0  0  0  0  0  0  0  0  0  0
   -6.4186    0.1299    7.7375 C   0  0  0  0  0  0  0  0  0  0  0  0
  -11.1853    2.5184   10.9365 C   0  0  0  0  0  0  0  0  0  0  0  0
  -12.1588    2.8521   11.8885 C   0  0  0  0  0  0  0  0  0  0  0  0
  -13.3986    2.1905   11.8952 C   0  0  0  0  0  0  0  0  0  0  0  0
  -13.7102    1.2811   10.8831 C   0  0  0  0  0  0  0  0  0  0  0  0
  -12.7526    0.9692    9.9273 C   0  0  0  0  0  0  0  0  0  0  0  0
  -13.0989    0.3857    8.6905 N   0  0  0  0  0  0  0  0  0  0  0  0
  -13.2709    1.4952    7.7061 C   0  0  0  0  0  0  0  0  0  0  0  0
  -11.9522    2.0434    7.0741 C   0  0  0  0  0  0  0  0  0  0  0  0
  -10.9222    1.0326    6.7514 N   0  0  0  0  0  0  0  0  0  0  0  0
  -10.3179    1.2398    5.4271 C   0  0  0  0  0  0  0  0  0  0  0  0
   -9.1891    2.2151    5.5134 C   0  0  0  0  0  0  0  0  0  0  0  0
   -7.8386    1.9463    5.1938 C   0  0  0  0  0  0  0  0  0  0  0  0
   -7.0303    2.9968    5.3545 N   0  0  0  0  0  0  0  0  0  0  0  0
   -7.8678    3.9552    5.7969 N   0  0  0  0  0  0  0  0  0  0  0  0
   -9.1687    3.5459    5.8774 C   0  0  0  0  0  0  0  0  0  0  0  0
  -11.4916   -0.3260    6.8543 C   0  0  0  0  0  0  0  0  0  0  0  0
  -12.1457   -0.6585    8.2211 C   0  0  0  0  0  0  0  0  0  0  0  0
  -11.4815    1.4895   10.0681 C   0  0  0  0  0  0  0  0  0  0  0  0
   -7.4044    2.2894    9.0500 H   0  0  0  0  0  0  0  0  0  0  0  0
   -9.0702    2.0792    8.5111 H   0  0  0  0  0  0  0  0  0  0  0  0
   -9.0134   -1.9020    8.6030 H   0  0  0  0  0  0  0  0  0  0  0  0
   -8.0709   -3.3227    6.7976 H   0  0  0  0  0  0  0  0  0  0  0  0
   -4.6318    1.3877    2.0752 H   0  0  0  0  0  0  0  0  0  0  0  0
   -6.4682    2.7695    1.1924 H   0  0  0  0  0  0  0  0  0  0  0  0
   -8.7790    1.9077    1.0829 H   0  0  0  0  0  0  0  0  0  0  0  0
   -7.2369   -2.8431    3.0784 H   0  0  0  0  0  0  0  0  0  0  0  0
   -4.3755    0.3271    5.6553 H   0  0  0  0  0  0  0  0  0  0  0  0
   -5.9405    1.0713    7.9753 H   0  0  0  0  0  0  0  0  0  0  0  0
  -11.9603    3.6333   12.6205 H   0  0  0  0  0  0  0  0  0  0  0  0
  -14.1456    2.4541   12.6395 H   0  0  0  0  0  0  0  0  0  0  0  0
  -14.7115    0.8699   10.8030 H   0  0  0  0  0  0  0  0  0  0  0  0
  -13.8948    1.0967    6.8942 H   0  0  0  0  0  0  0  0  0  0  0  0
  -13.8521    2.3256    8.1304 H   0  0  0  0  0  0  0  0  0  0  0  0
  -11.5076    2.7915    7.7381 H   0  0  0  0  0  0  0  0  0  0  0  0
  -12.2568    2.6019    6.1790 H   0  0  0  0  0  0  0  0  0  0  0  0
   -9.8988    0.2943    5.0556 H   0  0  0  0  0  0  0  0  0  0  0  0
  -11.0519    1.5566    4.6759 H   0  0  0  0  0  0  0  0  0  0  0  0
   -7.4259    1.0087    4.8535 H   0  0  0  0  0  0  0  0  0  0  0  0
   -7.4858    4.8683    6.0232 H   0  0  0  0  0  0  0  0  0  0  0  0
   -9.9457    4.2198    6.2081 H   0  0  0  0  0  0  0  0  0  0  0  0
  -10.7088   -1.0726    6.6770 H   0  0  0  0  0  0  0  0  0  0  0  0
  -12.2395   -0.4730    6.0622 H   0  0  0  0  0  0  0  0  0  0  0  0
  -11.3698   -0.8856    8.9618 H   0  0  0  0  0  0  0  0  0  0  0  0
  -12.7202   -1.5850    8.1008 H   0  0  0  0  0  0  0  0  0  0  0  0
  -10.7402    1.1849    9.3454 H   0  0  0  0  0  0  0  0  0  0  0  0
  1  2  1  0
  2  3  1  0
  2  4  1  0
  4  5  1  0
  5  6  1  0
  6  7  1  0
  7  8  2  0
  8  9  1  0
  9 10  2  0
 10 11  1  0
 11 12  2  0
 12 13  1  0
 13 14  1  0
 14 15  2  0
 15 16  1  0
 16 17  2  0
 17 18  1  0
 18 19  2  0
 19 20  1  0
 20 21  2  0
 21 22  1  0
 12 23  1  0
 23 24  1  0
 24 25  2  0
  2 26  1  0
 26 27  2  0
 27 28  1  0
 28 29  2  0
 29 30  1  0
 30 31  1  0
 31 32  1  0
 32 33  1  0
 33 34  1  0
 34 35  1  0
 35 36  1  0
 36 37  1  0
 37 38  2  0
 38 39  1  0
 39 40  1  0
 34 41  1  0
 41 42  1  0
 30 43  2  0
 25  7  1  0
 43 26  1  0
 24 10  1  0
 42 31  1  0
 22 14  1  0
 40 36  2  0
 22 18  1  0
  5 44  1  0
  5 45  1  0
  8 46  1  0
  9 47  1  0
 15 48  1  0
 16 49  1  0
 17 50  1  0
 21 51  1  0
 23 52  1  0
 25 53  1  0
 27 54  1  0
 28 55  1  0
 29 56  1  0
 32 57  1  0
 32 58  1  0
 33 59  1  0
 33 60  1  0
 35 61  1  0
 35 62  1  0
 37 63  1  0
 39 64  1  0
 40 65  1  0
 41 66  1  0
 41 67  1  0
 42 68  1  0
 42 69  1  0
 43 70  1  0
M  END
>  <Energy>  (690) 
136.10173787122062

>  <compound_id>  (690) 
2739

>  <target_id>  (690) 
1

>  <reference_id>  (690) 
73

>  <inspiration_ids>  (690) 
[126, 73]

>  <energy_score>  (690) 
-58.34738140075086

>  <distance_score>  (690) 
2.2947224312964756

>  <path>  (690) 
/opt/xchem-fragalysis-2/maxwin/BulkDock/SCRATCH/505734/C2739-P73/C2739-P73.minimised.mol

>  <scratch_subdir>  (690) 
/opt/xchem-fragalysis-2/maxwin/BulkDock/SCRATCH/505734/C2739-P73

>  <fragmenstein_runtime>  (690) 
41.3367555141449

>  <fragmenstein_outcome>  (690) 
too moved

>  <fragmenstein_mode>  (690) 
expansion

>  <fragmenstein_error>  (690) 


$$$$
C1615-P126
     RDKit          3D

 64 68  0  0  0  0  0  0  0  0999 V2000
  -12.6954    2.3395    5.9762 C   0  0  0  0  0  0  0  0  0  0  0  0
  -11.9992    2.4705    7.3160 C   0  0  0  0  0  0  0  0  0  0  0  0
  -10.8032    1.1988    7.6493 S   0  0  0  0  0  0  0  0  0  0  0  0
  -10.1102    1.5595    8.8665 O   0  0  0  0  0  0  0  0  0  0  0  0
  -10.1056    0.8077    6.3322 N   0  0  0  0  0  0  0  0  0  0  0  0
   -9.0529   -0.2217    6.3810 C   0  0  0  0  0  0  0  0  0  0  0  0
   -9.4641   -1.5539    6.3093 C   0  0  0  0  0  0  0  0  0  0  0  0
   -8.5591   -2.6014    6.4749 C   0  0  0  0  0  0  0  0  0  0  0  0
   -9.0752   -4.0191    6.3622 C   0  0  0  0  0  0  0  0  0  0  0  0
   -8.5371   -5.0210    7.4030 C   0  0  0  0  0  0  0  0  0  0  0  0
   -7.6191   -4.6974    8.1031 O   0  0  0  0  0  0  0  0  0  0  0  0
   -9.2406   -6.3209    7.2761 N   0  0  0  0  0  0  0  0  0  0  0  0
   -8.8806   -8.0412    8.0821 C   0  0  0  0  0  0  0  0  0  0  0  0
   -7.2080   -2.2868    6.6620 C   0  0  0  0  0  0  0  0  0  0  0  0
   -6.7826   -0.9583    6.7164 C   0  0  0  0  0  0  0  0  0  0  0  0
   -7.6934    0.0876    6.5351 C   0  0  0  0  0  0  0  0  0  0  0  0
   -7.1717    1.4586    6.4177 C   0  0  0  0  0  0  0  0  0  0  0  0
   -7.2045    2.4531    7.4870 C   0  0  0  0  0  0  0  0  0  0  0  0
   -6.7388    3.7060    7.3167 C   0  0  0  0  0  0  0  0  0  0  0  0
   -6.1873    4.0805    6.0630 C   0  0  0  0  0  0  0  0  0  0  0  0
   -5.6522    5.1949    5.6171 N   0  0  0  0  0  0  0  0  0  0  0  0
   -5.2640    4.9800    4.3107 N   0  0  0  0  0  0  0  0  0  0  0  0
   -5.5746    3.7456    3.9815 C   0  0  0  0  0  0  0  0  0  0  0  0
   -5.3495    3.1290    2.7998 N   0  0  0  0  0  0  0  0  0  0  0  0
   -6.1726    3.1233    5.0604 N   0  0  0  0  0  0  0  0  0  0  0  0
   -6.6587    1.8296    5.2258 C   0  0  0  0  0  0  0  0  0  0  0  0
  -11.5601   -0.2247    8.1078 N   0  0  0  0  0  0  0  0  0  0  0  0
  -12.9514   -0.4168    8.4127 C   0  0  0  0  0  0  0  0  0  0  0  0
  -13.4496    0.0597    9.7595 C   0  0  0  0  0  0  0  0  0  0  0  0
  -14.8513    0.0022    9.9804 C   0  0  0  0  0  0  0  0  0  0  0  0
  -15.4221    0.3610   11.2027 C   0  0  0  0  0  0  0  0  0  0  0  0
  -14.5721    0.7984   12.1866 C   0  0  0  0  0  0  0  0  0  0  0  0
  -13.2110    0.8646   11.9911 C   0  0  0  0  0  0  0  0  0  0  0  0
  -12.6180    0.4879   10.8041 C   0  0  0  0  0  0  0  0  0  0  0  0
  -12.5584    1.3255   13.0909 O   0  0  0  0  0  0  0  0  0  0  0  0
  -13.6808    1.7441   13.8889 C   0  0  0  0  0  0  0  0  0  0  0  0
  -14.9388    1.1972   13.4342 O   0  0  0  0  0  0  0  0  0  0  0  0
  -13.4675    3.1089    5.8768 H   0  0  0  0  0  0  0  0  0  0  0  0
  -13.1703    1.3626    5.8546 H   0  0  0  0  0  0  0  0  0  0  0  0
  -11.9894    2.4712    5.1500 H   0  0  0  0  0  0  0  0  0  0  0  0
  -12.7235    2.4734    8.1350 H   0  0  0  0  0  0  0  0  0  0  0  0
  -11.4584    3.4224    7.3566 H   0  0  0  0  0  0  0  0  0  0  0  0
  -10.5174   -1.7679    6.1386 H   0  0  0  0  0  0  0  0  0  0  0  0
  -10.1673   -4.0104    6.3795 H   0  0  0  0  0  0  0  0  0  0  0  0
   -8.7778   -4.3518    5.3694 H   0  0  0  0  0  0  0  0  0  0  0  0
   -9.9269   -6.2603    6.5118 H   0  0  0  0  0  0  0  0  0  0  0  0
   -7.8033   -8.1484    8.3146 H   0  0  0  0  0  0  0  0  0  0  0  0
   -9.4576   -8.4442    8.8791 H   0  0  0  0  0  0  0  0  0  0  0  0
   -9.4134   -8.7625    7.4478 H   0  0  0  0  0  0  0  0  0  0  0  0
   -6.4657   -3.0756    6.7697 H   0  0  0  0  0  0  0  0  0  0  0  0
   -5.7311   -0.7441    6.8839 H   0  0  0  0  0  0  0  0  0  0  0  0
   -7.6513    2.1567    8.4317 H   0  0  0  0  0  0  0  0  0  0  0  0
   -6.7868    4.4414    8.1122 H   0  0  0  0  0  0  0  0  0  0  0  0
   -5.9791    2.3948    2.4911 H   0  0  0  0  0  0  0  0  0  0  0  0
   -5.0927    3.7566    2.0416 H   0  0  0  0  0  0  0  0  0  0  0  0
   -6.6111    1.1692    4.3688 H   0  0  0  0  0  0  0  0  0  0  0  0
  -10.9652   -0.6953    8.7818 H   0  0  0  0  0  0  0  0  0  0  0  0
  -13.5663    0.0346    7.6278 H   0  0  0  0  0  0  0  0  0  0  0  0
  -13.1466   -1.4945    8.3608 H   0  0  0  0  0  0  0  0  0  0  0  0
  -15.5046   -0.3565    9.1852 H   0  0  0  0  0  0  0  0  0  0  0  0
  -16.4912    0.3009   11.3658 H   0  0  0  0  0  0  0  0  0  0  0  0
  -11.5389    0.5373   10.7117 H   0  0  0  0  0  0  0  0  0  0  0  0
  -13.7678    2.8328   13.8356 H   0  0  0  0  0  0  0  0  0  0  0  0
  -13.5198    1.4308   14.9233 H   0  0  0  0  0  0  0  0  0  0  0  0
  1  2  1  0
  2  3  1  0
  3  4  2  0
  3  5  2  0
  5  6  1  0
  6  7  2  0
  7  8  1  0
  8  9  1  0
  9 10  1  0
 10 11  2  0
 10 12  1  0
 12 13  1  0
  8 14  2  0
 14 15  1  0
 15 16  2  0
 16 17  1  0
 17 18  1  0
 18 19  2  0
 19 20  1  0
 20 21  2  0
 21 22  1  0
 22 23  2  0
 23 24  1  0
 23 25  1  0
 25 26  1  0
  3 27  1  0
 27 28  1  0
 28 29  1  0
 29 30  2  0
 30 31  1  0
 31 32  2  0
 32 33  1  0
 33 34  2  0
 33 35  1  0
 35 36  1  0
 36 37  1  0
 16  6  1  0
 26 17  2  0
 34 29  1  0
 25 20  1  0
 37 32  1  0
  1 38  1  0
  1 39  1  0
  1 40  1  0
  2 41  1  0
  2 42  1  0
  7 43  1  0
  9 44  1  0
  9 45  1  0
 12 46  1  0
 13 47  1  0
 13 48  1  0
 13 49  1  0
 14 50  1  0
 15 51  1  0
 18 52  1  0
 19 53  1  0
 24 54  1  0
 24 55  1  0
 26 56  1  0
 27 57  1  0
 28 58  1  0
 28 59  1  0
 30 60  1  0
 31 61  1  0
 34 62  1  0
 36 63  1  0
 36 64  1  0
M  END
>  <Energy>  (691) 
53.336941572208701

>  <compound_id>  (691) 
1615

>  <target_id>  (691) 
1

>  <reference_id>  (691) 
126

>  <inspiration_ids>  (691) 
[126, 74]

>  <energy_score>  (691) 
-27.500105394827443

>  <distance_score>  (691) 
2.8729656666745096

>  <path>  (691) 
/opt/xchem-fragalysis-2/maxwin/BulkDock/SCRATCH/505734/C1615-P126/C1615-P126.minimised.mol

>  <scratch_subdir>  (691) 
/opt/xchem-fragalysis-2/maxwin/BulkDock/SCRATCH/505734/C1615-P126

>  <fragmenstein_runtime>  (691) 
51.535966634750366

>  <fragmenstein_outcome>  (691) 
too moved

>  <fragmenstein_mode>  (691) 
expansion

>  <fragmenstein_error>  (691) 


$$$$
C1615-P74
     RDKit          3D

 64 68  0  0  0  0  0  0  0  0999 V2000
  -10.5400    1.7431    3.6677 C   0  0  0  0  0  0  0  0  0  0  0  0
  -11.4153    1.5129    4.8834 C   0  0  0  0  0  0  0  0  0  0  0  0
  -10.6278    0.4820    6.1093 S   0  0  0  0  0  0  0  0  0  0  0  0
   -9.3625    1.0854    6.4625 O   0  0  0  0  0  0  0  0  0  0  0  0
  -10.8961   -0.9924    5.8044 N   0  0  0  0  0  0  0  0  0  0  0  0
  -10.3239   -1.7058    4.6619 C   0  0  0  0  0  0  0  0  0  0  0  0
  -11.2233   -1.9822    3.6212 C   0  0  0  0  0  0  0  0  0  0  0  0
  -10.8521   -2.7339    2.4987 C   0  0  0  0  0  0  0  0  0  0  0  0
  -11.8218   -2.9320    1.3525 C   0  0  0  0  0  0  0  0  0  0  0  0
  -11.9337   -4.3853    0.8598 C   0  0  0  0  0  0  0  0  0  0  0  0
  -11.0662   -4.8216    0.1574 O   0  0  0  0  0  0  0  0  0  0  0  0
  -13.1262   -5.0004    1.3667 N   0  0  0  0  0  0  0  0  0  0  0  0
  -13.6978   -6.2911    1.1168 C   0  0  0  0  0  0  0  0  0  0  0  0
   -9.5524   -3.2306    2.4422 C   0  0  0  0  0  0  0  0  0  0  0  0
   -8.6531   -2.9707    3.4739 C   0  0  0  0  0  0  0  0  0  0  0  0
   -9.0022   -2.1711    4.5834 C   0  0  0  0  0  0  0  0  0  0  0  0
   -7.9349   -1.8589    5.5574 C   0  0  0  0  0  0  0  0  0  0  0  0
   -8.0818   -1.8437    7.0148 C   0  0  0  0  0  0  0  0  0  0  0  0
   -7.0517   -1.5487    7.8305 C   0  0  0  0  0  0  0  0  0  0  0  0
   -5.7538   -1.3780    7.2889 C   0  0  0  0  0  0  0  0  0  0  0  0
   -4.5547   -1.2821    7.8184 N   0  0  0  0  0  0  0  0  0  0  0  0
   -3.6461   -1.2386    6.7802 N   0  0  0  0  0  0  0  0  0  0  0  0
   -4.3117   -1.2113    5.6469 C   0  0  0  0  0  0  0  0  0  0  0  0
   -3.8333   -1.0941    4.3845 N   0  0  0  0  0  0  0  0  0  0  0  0
   -5.6504   -1.3665    5.9154 N   0  0  0  0  0  0  0  0  0  0  0  0
   -6.7168   -1.5623    5.0578 C   0  0  0  0  0  0  0  0  0  0  0  0
  -11.5228    0.7316    7.5351 N   0  0  0  0  0  0  0  0  0  0  0  0
  -11.5367   -0.3013    8.5632 C   0  0  0  0  0  0  0  0  0  0  0  0
  -12.3815    0.1242    9.7441 C   0  0  0  0  0  0  0  0  0  0  0  0
  -13.7587   -0.1967    9.7783 C   0  0  0  0  0  0  0  0  0  0  0  0
  -14.5576    0.1475   10.8730 C   0  0  0  0  0  0  0  0  0  0  0  0
  -13.9594    0.8305   11.9063 C   0  0  0  0  0  0  0  0  0  0  0  0
  -12.6274    1.1735   11.8698 C   0  0  0  0  0  0  0  0  0  0  0  0
  -11.8148    0.8426   10.8065 C   0  0  0  0  0  0  0  0  0  0  0  0
  -12.2349    1.8454   12.9831 O   0  0  0  0  0  0  0  0  0  0  0  0
  -13.5001    1.9983   13.6564 C   0  0  0  0  0  0  0  0  0  0  0  0
  -14.5702    1.2367   13.0519 O   0  0  0  0  0  0  0  0  0  0  0  0
  -11.0524    2.3925    2.9512 H   0  0  0  0  0  0  0  0  0  0  0  0
  -10.2963    0.8070    3.1595 H   0  0  0  0  0  0  0  0  0  0  0  0
   -9.5971    2.2245    3.9463 H   0  0  0  0  0  0  0  0  0  0  0  0
  -12.3647    1.0460    4.6048 H   0  0  0  0  0  0  0  0  0  0  0  0
  -11.6308    2.4729    5.3639 H   0  0  0  0  0  0  0  0  0  0  0  0
  -12.2418   -1.6040    3.7024 H   0  0  0  0  0  0  0  0  0  0  0  0
  -11.4833   -2.3239    0.5032 H   0  0  0  0  0  0  0  0  0  0  0  0
  -12.8103   -2.5360    1.6108 H   0  0  0  0  0  0  0  0  0  0  0  0
  -13.6758   -4.2991    1.8671 H   0  0  0  0  0  0  0  0  0  0  0  0
  -14.0069   -6.7274    2.0689 H   0  0  0  0  0  0  0  0  0  0  0  0
  -14.5686   -6.1642    0.4697 H   0  0  0  0  0  0  0  0  0  0  0  0
  -12.9622   -6.9321    0.6256 H   0  0  0  0  0  0  0  0  0  0  0  0
   -9.2180   -3.8135    1.5844 H   0  0  0  0  0  0  0  0  0  0  0  0
   -7.6553   -3.3996    3.3886 H   0  0  0  0  0  0  0  0  0  0  0  0
   -9.0648   -2.0373    7.4367 H   0  0  0  0  0  0  0  0  0  0  0  0
   -7.1835   -1.4799    8.8992 H   0  0  0  0  0  0  0  0  0  0  0  0
   -2.8557   -0.8346    4.3197 H   0  0  0  0  0  0  0  0  0  0  0  0
   -4.3921   -0.5780    3.7120 H   0  0  0  0  0  0  0  0  0  0  0  0
   -6.4856   -1.5194    4.0021 H   0  0  0  0  0  0  0  0  0  0  0  0
  -11.0961    1.5543    7.9480 H   0  0  0  0  0  0  0  0  0  0  0  0
  -11.9472   -1.2383    8.1706 H   0  0  0  0  0  0  0  0  0  0  0  0
  -10.5179   -0.5194    8.9060 H   0  0  0  0  0  0  0  0  0  0  0  0
  -14.2049   -0.7404    8.9459 H   0  0  0  0  0  0  0  0  0  0  0  0
  -15.6079   -0.1169   10.9030 H   0  0  0  0  0  0  0  0  0  0  0  0
  -10.7681    1.1264   10.8031 H   0  0  0  0  0  0  0  0  0  0  0  0
  -13.7911    3.0544   13.6358 H   0  0  0  0  0  0  0  0  0  0  0  0
  -13.3885    1.6676   14.6943 H   0  0  0  0  0  0  0  0  0  0  0  0
  1  2  1  0
  2  3  1  0
  3  4  2  0
  3  5  2  0
  5  6  1  0
  6  7  2  0
  7  8  1  0
  8  9  1  0
  9 10  1  0
 10 11  2  0
 10 12  1  0
 12 13  1  0
  8 14  2  0
 14 15  1  0
 15 16  2  0
 16 17  1  0
 17 18  1  0
 18 19  2  0
 19 20  1  0
 20 21  2  0
 21 22  1  0
 22 23  2  0
 23 24  1  0
 23 25  1  0
 25 26  1  0
  3 27  1  0
 27 28  1  0
 28 29  1  0
 29 30  2  0
 30 31  1  0
 31 32  2  0
 32 33  1  0
 33 34  2  0
 33 35  1  0
 35 36  1  0
 36 37  1  0
 16  6  1  0
 26 17  2  0
 34 29  1  0
 25 20  1  0
 37 32  1  0
  1 38  1  0
  1 39  1  0
  1 40  1  0
  2 41  1  0
  2 42  1  0
  7 43  1  0
  9 44  1  0
  9 45  1  0
 12 46  1  0
 13 47  1  0
 13 48  1  0
 13 49  1  0
 14 50  1  0
 15 51  1  0
 18 52  1  0
 19 53  1  0
 24 54  1  0
 24 55  1  0
 26 56  1  0
 27 57  1  0
 28 58  1  0
 28 59  1  0
 30 60  1  0
 31 61  1  0
 34 62  1  0
 36 63  1  0
 36 64  1  0
M  END
>  <Energy>  (692) 
-23.447507953498629

>  <compound_id>  (692) 
1615

>  <target_id>  (692) 
1

>  <reference_id>  (692) 
74

>  <inspiration_ids>  (692) 
[126, 74]

>  <energy_score>  (692) 
-104.28455492053826

>  <distance_score>  (692) 
4.0776118353278

>  <path>  (692) 
/opt/xchem-fragalysis-2/maxwin/BulkDock/SCRATCH/505734/C1615-P74/C1615-P74.minimised.mol

>  <scratch_subdir>  (692) 
/opt/xchem-fragalysis-2/maxwin/BulkDock/SCRATCH/505734/C1615-P74

>  <fragmenstein_runtime>  (692) 
74.9337375164032

>  <fragmenstein_outcome>  (692) 
too moved

>  <fragmenstein_mode>  (692) 
expansion

>  <fragmenstein_error>  (692) 


$$$$
C3661-P126
     RDKit          3D

 64 67  0  0  0  0  0  0  0  0999 V2000
  -19.7887    2.2715   16.0902 C   0  0  0  0  0  0  0  0  0  0  0  0
  -19.1811    1.7573   14.8908 N   0  0  0  0  0  0  0  0  0  0  0  0
  -17.7936    1.5501   14.5455 C   0  0  0  0  0  0  0  0  0  0  0  0
  -16.7986    1.6800   15.1991 O   0  0  0  0  0  0  0  0  0  0  0  0
  -17.7327    1.0143   13.1004 C   0  0  0  0  0  0  0  0  0  0  0  0
  -16.4044    1.1503   12.3898 C   0  0  0  0  0  0  0  0  0  0  0  0
  -15.8035    0.0338   11.8018 C   0  0  0  0  0  0  0  0  0  0  0  0
  -14.6147    0.1663   11.0795 C   0  0  0  0  0  0  0  0  0  0  0  0
  -13.9920    1.4140   10.9246 C   0  0  0  0  0  0  0  0  0  0  0  0
  -12.7394    1.4862   10.1435 C   0  0  0  0  0  0  0  0  0  0  0  0
  -11.4400    1.8266   10.7268 C   0  0  0  0  0  0  0  0  0  0  0  0
  -10.3189    1.9140    9.9882 C   0  0  0  0  0  0  0  0  0  0  0  0
  -10.3703    1.6362    8.6012 C   0  0  0  0  0  0  0  0  0  0  0  0
   -9.4578    1.6182    7.6551 N   0  0  0  0  0  0  0  0  0  0  0  0
  -10.0802    1.2534    6.4802 N   0  0  0  0  0  0  0  0  0  0  0  0
  -11.3570    1.0674    6.7314 C   0  0  0  0  0  0  0  0  0  0  0  0
  -12.3227    0.7252    5.8478 N   0  0  0  0  0  0  0  0  0  0  0  0
  -11.6022    1.2926    8.0715 N   0  0  0  0  0  0  0  0  0  0  0  0
  -12.7762    1.2191    8.8207 C   0  0  0  0  0  0  0  0  0  0  0  0
  -14.6011    2.5537   11.4860 C   0  0  0  0  0  0  0  0  0  0  0  0
  -14.0051    3.8406   11.3768 N   0  0  0  0  0  0  0  0  0  0  0  0
  -13.3346    4.2126   12.6381 C   0  0  0  0  0  0  0  0  0  0  0  0
  -12.9364    5.6486   12.7113 C   0  0  0  0  0  0  0  0  0  0  0  0
  -13.9700    6.5383   12.8039 O   0  0  0  0  0  0  0  0  0  0  0  0
  -13.4229    7.7702   12.9749 C   0  0  0  0  0  0  0  0  0  0  0  0
  -14.3679    8.8829   13.1905 C   0  0  0  0  0  0  0  0  0  0  0  0
  -12.0489    7.6874   12.9406 C   0  0  0  0  0  0  0  0  0  0  0  0
  -11.7166    6.3086   12.7554 C   0  0  0  0  0  0  0  0  0  0  0  0
  -10.3971    5.6629   12.6688 C   0  0  0  0  0  0  0  0  0  0  0  0
  -10.2461    4.5826   13.1565 O   0  0  0  0  0  0  0  0  0  0  0  0
   -9.4900    6.4940   11.9489 N   0  0  0  0  0  0  0  0  0  0  0  0
   -8.1389    6.2556   11.5012 C   0  0  0  0  0  0  0  0  0  0  0  0
   -7.0261    6.6454   12.4687 C   0  0  0  0  0  0  0  0  0  0  0  0
   -5.8546    6.3103   12.3197 O   0  0  0  0  0  0  0  0  0  0  0  0
   -7.4748    7.4807   13.4482 O   0  0  0  0  0  0  0  0  0  0  0  0
   -6.4557    7.9093   14.3501 C   0  0  0  0  0  0  0  0  0  0  0  0
  -15.7967    2.4030   12.2184 C   0  0  0  0  0  0  0  0  0  0  0  0
  -19.0141    2.5453   16.8100 H   0  0  0  0  0  0  0  0  0  0  0  0
  -20.3888    3.1465   15.8359 H   0  0  0  0  0  0  0  0  0  0  0  0
  -20.4427    1.5024   16.5065 H   0  0  0  0  0  0  0  0  0  0  0  0
  -19.7633    1.4698   14.1106 H   0  0  0  0  0  0  0  0  0  0  0  0
  -18.4798    1.5277   12.4824 H   0  0  0  0  0  0  0  0  0  0  0  0
  -18.0238   -0.0428   13.1506 H   0  0  0  0  0  0  0  0  0  0  0  0
  -16.2558   -0.9526   11.8886 H   0  0  0  0  0  0  0  0  0  0  0  0
  -14.1778   -0.7170   10.6211 H   0  0  0  0  0  0  0  0  0  0  0  0
  -11.3924    2.0060   11.7955 H   0  0  0  0  0  0  0  0  0  0  0  0
   -9.3713    2.1741   10.4355 H   0  0  0  0  0  0  0  0  0  0  0  0
  -13.2487    1.1141    5.9903 H   0  0  0  0  0  0  0  0  0  0  0  0
  -12.0263    0.8196    4.8791 H   0  0  0  0  0  0  0  0  0  0  0  0
  -13.6805    0.9456    8.2941 H   0  0  0  0  0  0  0  0  0  0  0  0
  -14.7371    4.5352   11.2330 H   0  0  0  0  0  0  0  0  0  0  0  0
  -14.0262    4.0390   13.4724 H   0  0  0  0  0  0  0  0  0  0  0  0
  -12.4701    3.5672   12.7942 H   0  0  0  0  0  0  0  0  0  0  0  0
  -14.7748    8.8453   14.2054 H   0  0  0  0  0  0  0  0  0  0  0  0
  -13.8716    9.8490   13.0564 H   0  0  0  0  0  0  0  0  0  0  0  0
  -15.1997    8.8281   12.4817 H   0  0  0  0  0  0  0  0  0  0  0  0
  -11.3706    8.5168   13.0858 H   0  0  0  0  0  0  0  0  0  0  0  0
   -9.9373    7.3793   11.7563 H   0  0  0  0  0  0  0  0  0  0  0  0
   -8.0626    5.1890   11.3036 H   0  0  0  0  0  0  0  0  0  0  0  0
   -7.9990    6.8189   10.5744 H   0  0  0  0  0  0  0  0  0  0  0  0
   -6.1490    7.0802   14.9940 H   0  0  0  0  0  0  0  0  0  0  0  0
   -5.5957    8.3205   13.8114 H   0  0  0  0  0  0  0  0  0  0  0  0
   -6.8698    8.7054   14.9740 H   0  0  0  0  0  0  0  0  0  0  0  0
  -16.2582    3.2841   12.6579 H   0  0  0  0  0  0  0  0  0  0  0  0
  1  2  1  0
  2  3  1  0
  3  4  2  0
  3  5  1  0
  5  6  1  0
  6  7  2  0
  7  8  1  0
  8  9  2  0
  9 10  1  0
 10 11  1  0
 11 12  2  0
 12 13  1  0
 13 14  2  0
 14 15  1  0
 15 16  2  0
 16 17  1  0
 16 18  1  0
 18 19  1  0
  9 20  1  0
 20 21  1  0
 21 22  1  0
 22 23  1  0
 23 24  1  0
 24 25  1  0
 25 26  1  0
 25 27  2  0
 27 28  1  0
 28 29  1  0
 29 30  2  0
 29 31  1  0
 31 32  1  0
 32 33  1  0
 33 34  2  0
 33 35  1  0
 35 36  1  0
 20 37  2  0
 37  6  1  0
 19 10  2  0
 28 23  2  0
 18 13  1  0
  1 38  1  0
  1 39  1  0
  1 40  1  0
  2 41  1  0
  5 42  1  0
  5 43  1  0
  7 44  1  0
  8 45  1  0
 11 46  1  0
 12 47  1  0
 17 48  1  0
 17 49  1  0
 19 50  1  0
 21 51  1  0
 22 52  1  0
 22 53  1  0
 26 54  1  0
 26 55  1  0
 26 56  1  0
 27 57  1  0
 31 58  1  0
 32 59  1  0
 32 60  1  0
 36 61  1  0
 36 62  1  0
 36 63  1  0
 37 64  1  0
M  END
>  <Energy>  (693) 
76.144548343078554

>  <compound_id>  (693) 
3661

>  <target_id>  (693) 
1

>  <reference_id>  (693) 
126

>  <inspiration_ids>  (693) 
[126, 100]

>  <energy_score>  (693) 
-54.205500849733255

>  <distance_score>  (693) 
2.167712181671598

>  <path>  (693) 
/opt/xchem-fragalysis-2/maxwin/BulkDock/SCRATCH/505734/C3661-P126/C3661-P126.minimised.mol

>  <scratch_subdir>  (693) 
/opt/xchem-fragalysis-2/maxwin/BulkDock/SCRATCH/505734/C3661-P126

>  <fragmenstein_runtime>  (693) 
9.496076345443726

>  <fragmenstein_outcome>  (693) 
too moved

>  <fragmenstein_mode>  (693) 
expansion

>  <fragmenstein_error>  (693) 


$$$$
C3661-P100
     RDKit          3D

 64 67  0  0  0  0  0  0  0  0999 V2000
  -19.0978    1.4978   10.2926 C   0  0  0  0  0  0  0  0  0  0  0  0
  -18.1125    1.3744   11.3261 N   0  0  0  0  0  0  0  0  0  0  0  0
  -18.0966    0.4927   12.6025 C   0  0  0  0  0  0  0  0  0  0  0  0
  -18.8477   -0.3239   12.9674 O   0  0  0  0  0  0  0  0  0  0  0  0
  -16.8708    0.8818   13.4388 C   0  0  0  0  0  0  0  0  0  0  0  0
  -15.5430    0.9259   12.7225 C   0  0  0  0  0  0  0  0  0  0  0  0
  -15.2179    0.0133   11.7295 C   0  0  0  0  0  0  0  0  0  0  0  0
  -14.0152    0.1367   11.0288 C   0  0  0  0  0  0  0  0  0  0  0  0
  -13.0689    1.1546   11.2946 C   0  0  0  0  0  0  0  0  0  0  0  0
  -11.8513    1.3029   10.4198 C   0  0  0  0  0  0  0  0  0  0  0  0
  -10.7649    2.2841   10.6186 C   0  0  0  0  0  0  0  0  0  0  0  0
   -9.8720    2.6209    9.6716 C   0  0  0  0  0  0  0  0  0  0  0  0
   -9.8282    1.8677    8.4837 C   0  0  0  0  0  0  0  0  0  0  0  0
   -9.0743    1.8940    7.4110 N   0  0  0  0  0  0  0  0  0  0  0  0
   -9.4099    0.8019    6.6318 N   0  0  0  0  0  0  0  0  0  0  0  0
  -10.3411    0.1295    7.2684 C   0  0  0  0  0  0  0  0  0  0  0  0
  -10.8608   -1.0849    6.9788 N   0  0  0  0  0  0  0  0  0  0  0  0
  -10.7039    0.8126    8.3989 N   0  0  0  0  0  0  0  0  0  0  0  0
  -11.7198    0.5508    9.3064 C   0  0  0  0  0  0  0  0  0  0  0  0
  -13.3661    2.0263   12.3687 C   0  0  0  0  0  0  0  0  0  0  0  0
  -12.5545    3.1299   12.7102 N   0  0  0  0  0  0  0  0  0  0  0  0
  -12.8395    4.3353   11.9238 C   0  0  0  0  0  0  0  0  0  0  0  0
  -12.4523    5.6380   12.5476 C   0  0  0  0  0  0  0  0  0  0  0  0
  -13.4790    6.5239   12.7257 O   0  0  0  0  0  0  0  0  0  0  0  0
  -12.9601    7.6381   13.3039 C   0  0  0  0  0  0  0  0  0  0  0  0
  -13.9130    8.7060   13.6670 C   0  0  0  0  0  0  0  0  0  0  0  0
  -11.5994    7.5010   13.4548 C   0  0  0  0  0  0  0  0  0  0  0  0
  -11.2583    6.1953   12.9830 C   0  0  0  0  0  0  0  0  0  0  0  0
   -9.9563    5.5268   13.0030 C   0  0  0  0  0  0  0  0  0  0  0  0
   -9.8800    4.4068   13.3052 O   0  0  0  0  0  0  0  0  0  0  0  0
   -8.8651    6.5223   12.5973 N   0  0  0  0  0  0  0  0  0  0  0  0
   -7.4291    6.3793   12.5673 C   0  0  0  0  0  0  0  0  0  0  0  0
   -6.7607    7.2740   13.5980 C   0  0  0  0  0  0  0  0  0  0  0  0
   -7.2967    8.2292   14.1490 O   0  0  0  0  0  0  0  0  0  0  0  0
   -5.4539    6.9107   13.7571 O   0  0  0  0  0  0  0  0  0  0  0  0
   -4.7540    7.7012   14.7170 C   0  0  0  0  0  0  0  0  0  0  0  0
  -14.5930    1.8967   13.0577 C   0  0  0  0  0  0  0  0  0  0  0  0
  -19.4001    2.5443   10.2185 H   0  0  0  0  0  0  0  0  0  0  0  0
  -18.6512    1.1767    9.3491 H   0  0  0  0  0  0  0  0  0  0  0  0
  -19.9595    0.8713   10.5323 H   0  0  0  0  0  0  0  0  0  0  0  0
  -17.2593    1.9230   11.2820 H   0  0  0  0  0  0  0  0  0  0  0  0
  -16.7834    0.1554   14.2534 H   0  0  0  0  0  0  0  0  0  0  0  0
  -17.0959    1.8565   13.8896 H   0  0  0  0  0  0  0  0  0  0  0  0
  -15.9004   -0.7920   11.4592 H   0  0  0  0  0  0  0  0  0  0  0  0
  -13.8669   -0.5989   10.2449 H   0  0  0  0  0  0  0  0  0  0  0  0
  -10.6503    2.7495   11.5880 H   0  0  0  0  0  0  0  0  0  0  0  0
   -9.1235    3.3828    9.8419 H   0  0  0  0  0  0  0  0  0  0  0  0
  -10.9794   -1.7206    7.7731 H   0  0  0  0  0  0  0  0  0  0  0  0
  -10.3275   -1.5662    6.2573 H   0  0  0  0  0  0  0  0  0  0  0  0
  -12.3859   -0.2373    8.9935 H   0  0  0  0  0  0  0  0  0  0  0  0
  -12.6403    3.3729   13.7083 H   0  0  0  0  0  0  0  0  0  0  0  0
  -12.3607    4.2847   10.9413 H   0  0  0  0  0  0  0  0  0  0  0  0
  -13.9184    4.3870   11.7169 H   0  0  0  0  0  0  0  0  0  0  0  0
  -13.9209    8.8583   14.7506 H   0  0  0  0  0  0  0  0  0  0  0  0
  -13.6296    9.6486   13.1889 H   0  0  0  0  0  0  0  0  0  0  0  0
  -14.9308    8.4575   13.3504 H   0  0  0  0  0  0  0  0  0  0  0  0
  -10.9464    8.2261   13.9238 H   0  0  0  0  0  0  0  0  0  0  0  0
   -9.2741    7.4416   12.4775 H   0  0  0  0  0  0  0  0  0  0  0  0
   -7.1911    5.3362   12.7825 H   0  0  0  0  0  0  0  0  0  0  0  0
   -7.0817    6.6596   11.5700 H   0  0  0  0  0  0  0  0  0  0  0  0
   -3.7306    7.3223   14.7861 H   0  0  0  0  0  0  0  0  0  0  0  0
   -4.7141    8.7472   14.3975 H   0  0  0  0  0  0  0  0  0  0  0  0
   -5.2224    7.6128   15.7024 H   0  0  0  0  0  0  0  0  0  0  0  0
  -14.8168    2.6161   13.8419 H   0  0  0  0  0  0  0  0  0  0  0  0
  1  2  1  0
  2  3  1  0
  3  4  2  0
  3  5  1  0
  5  6  1  0
  6  7  2  0
  7  8  1  0
  8  9  2  0
  9 10  1  0
 10 11  1  0
 11 12  2  0
 12 13  1  0
 13 14  2  0
 14 15  1  0
 15 16  2  0
 16 17  1  0
 16 18  1  0
 18 19  1  0
  9 20  1  0
 20 21  1  0
 21 22  1  0
 22 23  1  0
 23 24  1  0
 24 25  1  0
 25 26  1  0
 25 27  2  0
 27 28  1  0
 28 29  1  0
 29 30  2  0
 29 31  1  0
 31 32  1  0
 32 33  1  0
 33 34  2  0
 33 35  1  0
 35 36  1  0
 20 37  2  0
 37  6  1  0
 19 10  2  0
 28 23  2  0
 18 13  1  0
  1 38  1  0
  1 39  1  0
  1 40  1  0
  2 41  1  0
  5 42  1  0
  5 43  1  0
  7 44  1  0
  8 45  1  0
 11 46  1  0
 12 47  1  0
 17 48  1  0
 17 49  1  0
 19 50  1  0
 21 51  1  0
 22 52  1  0
 22 53  1  0
 26 54  1  0
 26 55  1  0
 26 56  1  0
 27 57  1  0
 31 58  1  0
 32 59  1  0
 32 60  1  0
 36 61  1  0
 36 62  1  0
 36 63  1  0
 37 64  1  0
M  END
>  <Energy>  (694) 
108.47226347651453

>  <compound_id>  (694) 
3661

>  <target_id>  (694) 
1

>  <reference_id>  (694) 
100

>  <inspiration_ids>  (694) 
[126, 100]

>  <energy_score>  (694) 
-38.421085753253664

>  <distance_score>  (694) 
1.7831098564960157

>  <path>  (694) 
/opt/xchem-fragalysis-2/maxwin/BulkDock/SCRATCH/505734/C3661-P100/C3661-P100.minimised.mol

>  <scratch_subdir>  (694) 
/opt/xchem-fragalysis-2/maxwin/BulkDock/SCRATCH/505734/C3661-P100

>  <fragmenstein_runtime>  (694) 
6.4564878940582275

>  <fragmenstein_outcome>  (694) 
too moved

>  <fragmenstein_mode>  (694) 
expansion

>  <fragmenstein_error>  (694) 


$$$$
C3668-P126
     RDKit          3D

 62 65  0  0  0  0  0  0  0  0999 V2000
  -10.9701   -0.2670    9.8250 C   0  0  0  0  0  0  0  0  0  0  0  0
  -12.3291    0.1906    9.7871 N   0  0  0  0  0  0  0  0  0  0  0  0
  -13.3423    0.2302   10.8126 C   0  0  0  0  0  0  0  0  0  0  0  0
  -13.2842   -0.0354   11.9768 O   0  0  0  0  0  0  0  0  0  0  0  0
  -14.6427    0.7485   10.1789 C   0  0  0  0  0  0  0  0  0  0  0  0
  -15.9320    0.5399   10.9454 C   0  0  0  0  0  0  0  0  0  0  0  0
  -17.0482    0.0088   10.2888 C   0  0  0  0  0  0  0  0  0  0  0  0
  -18.3033   -0.0562   10.9153 C   0  0  0  0  0  0  0  0  0  0  0  0
  -18.5016    0.4194   12.2214 C   0  0  0  0  0  0  0  0  0  0  0  0
  -19.9401    0.5222   12.8048 C   0  0  0  0  0  0  0  0  0  0  0  0
  -20.5976   -0.7922   12.8984 N   0  0  0  0  0  0  0  0  0  0  0  0
  -20.6542   -1.7549   13.9935 C   0  0  0  0  0  0  0  0  0  0  0  0
  -20.1231   -1.7484   15.0394 O   0  0  0  0  0  0  0  0  0  0  0  0
  -21.6445   -2.6824   13.4422 N   0  0  0  0  0  0  0  0  0  0  0  0
  -20.9554   -3.7951   12.7091 C   0  0  0  0  0  0  0  0  0  0  0  0
  -22.3688   -3.8464   14.0882 C   0  0  0  0  0  0  0  0  0  0  0  0
  -23.5027   -3.3099   14.9740 C   0  0  0  0  0  0  0  0  0  0  0  0
  -23.2492   -2.8929   16.2890 C   0  0  0  0  0  0  0  0  0  0  0  0
  -24.2939   -2.4507   17.1041 C   0  0  0  0  0  0  0  0  0  0  0  0
  -25.5985   -2.4096   16.6134 C   0  0  0  0  0  0  0  0  0  0  0  0
  -25.8614   -2.7999   15.3024 C   0  0  0  0  0  0  0  0  0  0  0  0
  -24.8191   -3.2416   14.4845 C   0  0  0  0  0  0  0  0  0  0  0  0
  -20.8146    1.4063   11.8537 C   0  0  0  0  0  0  0  0  0  0  0  0
  -22.2458    1.6339   12.3683 C   0  0  0  0  0  0  0  0  0  0  0  0
  -22.2955    1.8944   13.8252 C   0  0  0  0  0  0  0  0  0  0  0  0
  -23.2795    2.3921   14.5408 N   0  0  0  0  0  0  0  0  0  0  0  0
  -22.8765    2.3877   15.8629 N   0  0  0  0  0  0  0  0  0  0  0  0
  -21.6707    1.8691   15.9238 C   0  0  0  0  0  0  0  0  0  0  0  0
  -20.9045    1.6559   17.0133 N   0  0  0  0  0  0  0  0  0  0  0  0
  -21.2571    1.5875   14.6566 N   0  0  0  0  0  0  0  0  0  0  0  0
  -19.9436    1.2172   14.1948 C   0  0  0  0  0  0  0  0  0  0  0  0
  -17.3515    0.8848   12.8958 C   0  0  0  0  0  0  0  0  0  0  0  0
  -16.0962    0.9619   12.2653 C   0  0  0  0  0  0  0  0  0  0  0  0
  -10.8403   -0.9527   10.6643 H   0  0  0  0  0  0  0  0  0  0  0  0
  -10.3179    0.6001    9.9511 H   0  0  0  0  0  0  0  0  0  0  0  0
  -10.7403   -0.7645    8.8809 H   0  0  0  0  0  0  0  0  0  0  0  0
  -12.7135    0.5632    8.9282 H   0  0  0  0  0  0  0  0  0  0  0  0
  -14.7481    0.2705    9.1959 H   0  0  0  0  0  0  0  0  0  0  0  0
  -14.5220    1.8253   10.0046 H   0  0  0  0  0  0  0  0  0  0  0  0
  -16.9606   -0.3428    9.2625 H   0  0  0  0  0  0  0  0  0  0  0  0
  -19.1373   -0.4579   10.3450 H   0  0  0  0  0  0  0  0  0  0  0  0
  -21.1161   -1.1554   12.1117 H   0  0  0  0  0  0  0  0  0  0  0  0
  -21.5930   -4.3539   12.0084 H   0  0  0  0  0  0  0  0  0  0  0  0
  -20.3015   -4.4225   13.3333 H   0  0  0  0  0  0  0  0  0  0  0  0
  -20.2503   -3.2915   12.0351 H   0  0  0  0  0  0  0  0  0  0  0  0
  -22.8821   -4.5327   13.3949 H   0  0  0  0  0  0  0  0  0  0  0  0
  -21.7125   -4.3977   14.7807 H   0  0  0  0  0  0  0  0  0  0  0  0
  -22.2310   -2.8932   16.6747 H   0  0  0  0  0  0  0  0  0  0  0  0
  -24.0853   -2.1146   18.1162 H   0  0  0  0  0  0  0  0  0  0  0  0
  -26.4056   -2.0500   17.2461 H   0  0  0  0  0  0  0  0  0  0  0  0
  -26.8746   -2.7484   14.9133 H   0  0  0  0  0  0  0  0  0  0  0  0
  -25.0397   -3.5353   13.4612 H   0  0  0  0  0  0  0  0  0  0  0  0
  -20.8895    0.9635   10.8525 H   0  0  0  0  0  0  0  0  0  0  0  0
  -20.3313    2.3795   11.7137 H   0  0  0  0  0  0  0  0  0  0  0  0
  -22.6983    2.4701   11.8236 H   0  0  0  0  0  0  0  0  0  0  0  0
  -22.8565    0.7488   12.1532 H   0  0  0  0  0  0  0  0  0  0  0  0
  -21.4219    1.7807   17.8796 H   0  0  0  0  0  0  0  0  0  0  0  0
  -20.4077    0.7602   17.0689 H   0  0  0  0  0  0  0  0  0  0  0  0
  -19.4816    0.5835   14.9461 H   0  0  0  0  0  0  0  0  0  0  0  0
  -19.3804    2.1561   14.1696 H   0  0  0  0  0  0  0  0  0  0  0  0
  -17.3941    1.2362   13.9222 H   0  0  0  0  0  0  0  0  0  0  0  0
  -15.2519    1.3737   12.8175 H   0  0  0  0  0  0  0  0  0  0  0  0
  1  2  1  0
  2  3  1  0
  3  4  2  0
  3  5  1  0
  5  6  1  0
  6  7  2  0
  7  8  1  0
  8  9  2  0
  9 10  1  0
 10 11  1  0
 11 12  1  0
 12 13  2  0
 12 14  1  0
 14 15  1  0
 14 16  1  0
 16 17  1  0
 17 18  2  0
 18 19  1  0
 19 20  2  0
 20 21  1  0
 21 22  2  0
 10 23  1  0
 23 24  1  0
 24 25  1  0
 25 26  2  0
 26 27  1  0
 27 28  2  0
 28 29  1  0
 28 30  1  0
 30 31  1  0
  9 32  1  0
 32 33  2  0
 33  6  1  0
 31 10  1  0
 22 17  1  0
 30 25  1  0
  1 34  1  0
  1 35  1  0
  1 36  1  0
  2 37  1  0
  5 38  1  0
  5 39  1  0
  7 40  1  0
  8 41  1  0
 11 42  1  0
 15 43  1  0
 15 44  1  0
 15 45  1  0
 16 46  1  0
 16 47  1  0
 18 48  1  0
 19 49  1  0
 20 50  1  0
 21 51  1  0
 22 52  1  0
 23 53  1  0
 23 54  1  0
 24 55  1  0
 24 56  1  0
 29 57  1  0
 29 58  1  0
 31 59  1  0
 31 60  1  0
 32 61  1  0
 33 62  1  0
M  END
>  <Energy>  (695) 
30.793642137569904

>  <compound_id>  (695) 
3668

>  <target_id>  (695) 
1

>  <reference_id>  (695) 
126

>  <inspiration_ids>  (695) 
[126, 174]

>  <energy_score>  (695) 
25.889727281840067

>  <distance_score>  (695) 
3.961673526914162

>  <path>  (695) 
/opt/xchem-fragalysis-2/maxwin/BulkDock/SCRATCH/505734/C3668-P126/C3668-P126.minimised.mol

>  <scratch_subdir>  (695) 
/opt/xchem-fragalysis-2/maxwin/BulkDock/SCRATCH/505734/C3668-P126

>  <fragmenstein_runtime>  (695) 
71.23008131980896

>  <fragmenstein_outcome>  (695) 
too moved

>  <fragmenstein_mode>  (695) 
expansion

>  <fragmenstein_error>  (695) 


$$$$
C3668-P174
     RDKit          3D

 62 65  0  0  0  0  0  0  0  0999 V2000
   -9.9141    0.7473    9.3704 C   0  0  0  0  0  0  0  0  0  0  0  0
  -11.3268    0.5683    9.2075 N   0  0  0  0  0  0  0  0  0  0  0  0
  -12.4326    0.9790   10.0345 C   0  0  0  0  0  0  0  0  0  0  0  0
  -12.4507    1.5064   11.1086 O   0  0  0  0  0  0  0  0  0  0  0  0
  -13.7359    0.6433    9.2907 C   0  0  0  0  0  0  0  0  0  0  0  0
  -14.9928    0.7847   10.1135 C   0  0  0  0  0  0  0  0  0  0  0  0
  -15.2928   -0.1446   11.1082 C   0  0  0  0  0  0  0  0  0  0  0  0
  -16.4609   -0.0574   11.8711 C   0  0  0  0  0  0  0  0  0  0  0  0
  -17.4007    0.9552   11.6358 C   0  0  0  0  0  0  0  0  0  0  0  0
  -18.6415    1.1201   12.5567 C   0  0  0  0  0  0  0  0  0  0  0  0
  -19.1752   -0.1845   12.9857 N   0  0  0  0  0  0  0  0  0  0  0  0
  -20.1934   -0.5203   13.9821 C   0  0  0  0  0  0  0  0  0  0  0  0
  -20.7754    0.1666   14.7359 O   0  0  0  0  0  0  0  0  0  0  0  0
  -20.2429   -1.9728   13.7934 N   0  0  0  0  0  0  0  0  0  0  0  0
  -21.2834   -2.3239   12.7657 C   0  0  0  0  0  0  0  0  0  0  0  0
  -20.9768   -3.0556   14.5910 C   0  0  0  0  0  0  0  0  0  0  0  0
  -22.3786   -2.8907   15.1883 C   0  0  0  0  0  0  0  0  0  0  0  0
  -22.6434   -1.9539   16.1949 C   0  0  0  0  0  0  0  0  0  0  0  0
  -23.9190   -1.8564   16.7620 C   0  0  0  0  0  0  0  0  0  0  0  0
  -24.9474   -2.6947   16.3356 C   0  0  0  0  0  0  0  0  0  0  0  0
  -24.7014   -3.6378   15.3426 C   0  0  0  0  0  0  0  0  0  0  0  0
  -23.4260   -3.7390   14.7780 C   0  0  0  0  0  0  0  0  0  0  0  0
  -19.8391    1.8785   11.8580 C   0  0  0  0  0  0  0  0  0  0  0  0
  -20.0884    3.3278   12.3245 C   0  0  0  0  0  0  0  0  0  0  0  0
  -18.8288    3.9845   12.7247 C   0  0  0  0  0  0  0  0  0  0  0  0
  -18.3673    5.1880   12.4851 N   0  0  0  0  0  0  0  0  0  0  0  0
  -17.0751    5.2337   12.9824 N   0  0  0  0  0  0  0  0  0  0  0  0
  -16.7794    4.0534   13.4799 C   0  0  0  0  0  0  0  0  0  0  0  0
  -15.6111    3.6040   13.9773 N   0  0  0  0  0  0  0  0  0  0  0  0
  -17.8916    3.2788   13.4230 N   0  0  0  0  0  0  0  0  0  0  0  0
  -18.1258    1.9042   13.7961 C   0  0  0  0  0  0  0  0  0  0  0  0
  -17.0751    1.9002   10.6399 C   0  0  0  0  0  0  0  0  0  0  0  0
  -15.8898    1.8239    9.8979 C   0  0  0  0  0  0  0  0  0  0  0  0
   -9.5037    1.1466    8.4406 H   0  0  0  0  0  0  0  0  0  0  0  0
   -9.4684   -0.2256    9.5802 H   0  0  0  0  0  0  0  0  0  0  0  0
   -9.7210    1.4369   10.1940 H   0  0  0  0  0  0  0  0  0  0  0  0
  -11.6850    0.0772    8.3959 H   0  0  0  0  0  0  0  0  0  0  0  0
  -13.7923    1.2968    8.4110 H   0  0  0  0  0  0  0  0  0  0  0  0
  -13.6864   -0.3882    8.9204 H   0  0  0  0  0  0  0  0  0  0  0  0
  -14.6028   -0.9569   11.2866 H   0  0  0  0  0  0  0  0  0  0  0  0
  -16.6085   -0.7914   12.6605 H   0  0  0  0  0  0  0  0  0  0  0  0
  -18.8277   -1.0378   12.5656 H   0  0  0  0  0  0  0  0  0  0  0  0
  -21.2959   -3.3666   12.4148 H   0  0  0  0  0  0  0  0  0  0  0  0
  -22.2720   -1.8885   12.9648 H   0  0  0  0  0  0  0  0  0  0  0  0
  -20.9739   -1.7798   11.8595 H   0  0  0  0  0  0  0  0  0  0  0  0
  -20.3411   -3.1047   15.4908 H   0  0  0  0  0  0  0  0  0  0  0  0
  -20.8101   -4.0616   14.1720 H   0  0  0  0  0  0  0  0  0  0  0  0
  -21.8557   -1.2870   16.5439 H   0  0  0  0  0  0  0  0  0  0  0  0
  -24.1069   -1.1137   17.5337 H   0  0  0  0  0  0  0  0  0  0  0  0
  -25.9371   -2.6093   16.7763 H   0  0  0  0  0  0  0  0  0  0  0  0
  -25.4987   -4.2973   15.0099 H   0  0  0  0  0  0  0  0  0  0  0  0
  -23.2481   -4.4967   14.0169 H   0  0  0  0  0  0  0  0  0  0  0  0
  -20.7829    1.3383   12.0162 H   0  0  0  0  0  0  0  0  0  0  0  0
  -19.7207    1.8642   10.7674 H   0  0  0  0  0  0  0  0  0  0  0  0
  -20.7693    3.3199   13.1846 H   0  0  0  0  0  0  0  0  0  0  0  0
  -20.5856    3.8929   11.5288 H   0  0  0  0  0  0  0  0  0  0  0  0
  -14.8816    4.3246   13.9715 H   0  0  0  0  0  0  0  0  0  0  0  0
  -15.2078    2.8117   13.4751 H   0  0  0  0  0  0  0  0  0  0  0  0
  -17.2092    1.4760   14.2171 H   0  0  0  0  0  0  0  0  0  0  0  0
  -18.8671    1.9314   14.6033 H   0  0  0  0  0  0  0  0  0  0  0  0
  -17.7179    2.7540   10.4333 H   0  0  0  0  0  0  0  0  0  0  0  0
  -15.6838    2.5888    9.1522 H   0  0  0  0  0  0  0  0  0  0  0  0
  1  2  1  0
  2  3  1  0
  3  4  2  0
  3  5  1  0
  5  6  1  0
  6  7  2  0
  7  8  1  0
  8  9  2  0
  9 10  1  0
 10 11  1  0
 11 12  1  0
 12 13  2  0
 12 14  1  0
 14 15  1  0
 14 16  1  0
 16 17  1  0
 17 18  2  0
 18 19  1  0
 19 20  2  0
 20 21  1  0
 21 22  2  0
 10 23  1  0
 23 24  1  0
 24 25  1  0
 25 26  2  0
 26 27  1  0
 27 28  2  0
 28 29  1  0
 28 30  1  0
 30 31  1  0
  9 32  1  0
 32 33  2  0
 33  6  1  0
 31 10  1  0
 22 17  1  0
 30 25  1  0
  1 34  1  0
  1 35  1  0
  1 36  1  0
  2 37  1  0
  5 38  1  0
  5 39  1  0
  7 40  1  0
  8 41  1  0
 11 42  1  0
 15 43  1  0
 15 44  1  0
 15 45  1  0
 16 46  1  0
 16 47  1  0
 18 48  1  0
 19 49  1  0
 20 50  1  0
 21 51  1  0
 22 52  1  0
 23 53  1  0
 23 54  1  0
 24 55  1  0
 24 56  1  0
 29 57  1  0
 29 58  1  0
 31 59  1  0
 31 60  1  0
 32 61  1  0
 33 62  1  0
M  END
>  <Energy>  (696) 
38.887558401296268

>  <compound_id>  (696) 
3668

>  <target_id>  (696) 
1

>  <reference_id>  (696) 
174

>  <inspiration_ids>  (696) 
[126, 174]

>  <energy_score>  (696) 
33.98364354557049

>  <distance_score>  (696) 
4.037490446803888

>  <path>  (696) 
/opt/xchem-fragalysis-2/maxwin/BulkDock/SCRATCH/505734/C3668-P174/C3668-P174.minimised.mol

>  <scratch_subdir>  (696) 
/opt/xchem-fragalysis-2/maxwin/BulkDock/SCRATCH/505734/C3668-P174

>  <fragmenstein_runtime>  (696) 
40.27351427078247

>  <fragmenstein_outcome>  (696) 
too moved

>  <fragmenstein_mode>  (696) 
expansion

>  <fragmenstein_error>  (696) 


$$$$
C3669-P126
     RDKit          3D

 61 64  0  0  0  0  0  0  0  0999 V2000
   -2.8718    6.3329    5.3097 C   0  0  0  0  0  0  0  0  0  0  0  0
   -3.6123    5.3049    4.6379 N   0  0  0  0  0  0  0  0  0  0  0  0
   -4.8358    5.3630    3.8839 C   0  0  0  0  0  0  0  0  0  0  0  0
   -5.5923    6.2715    3.6893 O   0  0  0  0  0  0  0  0  0  0  0  0
   -5.1699    3.9846    3.2965 C   0  0  0  0  0  0  0  0  0  0  0  0
   -6.1914    3.2423    4.1260 C   0  0  0  0  0  0  0  0  0  0  0  0
   -5.7892    2.4436    5.1996 C   0  0  0  0  0  0  0  0  0  0  0  0
   -6.7173    1.7803    6.0101 C   0  0  0  0  0  0  0  0  0  0  0  0
   -8.0817    1.8996    5.7394 C   0  0  0  0  0  0  0  0  0  0  0  0
   -9.1014    1.1414    6.5064 C   0  0  0  0  0  0  0  0  0  0  0  0
   -9.0479   -0.3264    6.5269 C   0  0  0  0  0  0  0  0  0  0  0  0
  -10.0537   -1.0765    7.0006 C   0  0  0  0  0  0  0  0  0  0  0  0
  -11.2364   -0.4446    7.4431 C   0  0  0  0  0  0  0  0  0  0  0  0
  -12.4014   -0.9465    7.7814 N   0  0  0  0  0  0  0  0  0  0  0  0
  -13.2368    0.0958    8.0598 N   0  0  0  0  0  0  0  0  0  0  0  0
  -12.5714    1.2171    7.9037 C   0  0  0  0  0  0  0  0  0  0  0  0
  -13.1005    2.4525    8.0804 N   0  0  0  0  0  0  0  0  0  0  0  0
  -11.2597    0.9478    7.5026 N   0  0  0  0  0  0  0  0  0  0  0  0
  -10.1615    1.7650    7.1024 C   0  0  0  0  0  0  0  0  0  0  0  0
  -10.2158    3.2625    7.3122 C   0  0  0  0  0  0  0  0  0  0  0  0
  -10.5768    3.6160    8.6663 N   0  0  0  0  0  0  0  0  0  0  0  0
  -10.3916    2.8987    9.9190 C   0  0  0  0  0  0  0  0  0  0  0  0
   -9.8330    1.8915   10.1441 O   0  0  0  0  0  0  0  0  0  0  0  0
  -11.1884    3.7497   10.7933 N   0  0  0  0  0  0  0  0  0  0  0  0
  -10.3094    4.7904   11.4438 C   0  0  0  0  0  0  0  0  0  0  0  0
  -11.6359    3.5436   12.2238 C   0  0  0  0  0  0  0  0  0  0  0  0
  -12.8568    2.6085   12.1768 C   0  0  0  0  0  0  0  0  0  0  0  0
  -12.7656    1.3163   11.6380 C   0  0  0  0  0  0  0  0  0  0  0  0
  -13.8991    0.5114   11.5188 C   0  0  0  0  0  0  0  0  0  0  0  0
  -15.1301    0.9603   11.9861 C   0  0  0  0  0  0  0  0  0  0  0  0
  -15.2313    2.2242   12.5611 C   0  0  0  0  0  0  0  0  0  0  0  0
  -14.1047    3.0462   12.6484 C   0  0  0  0  0  0  0  0  0  0  0  0
   -8.4874    2.6797    4.6411 C   0  0  0  0  0  0  0  0  0  0  0  0
   -7.5550    3.3616    3.8561 C   0  0  0  0  0  0  0  0  0  0  0  0
   -3.3788    7.2929    5.1912 H   0  0  0  0  0  0  0  0  0  0  0  0
   -1.8709    6.3796    4.8755 H   0  0  0  0  0  0  0  0  0  0  0  0
   -2.8004    6.0731    6.3680 H   0  0  0  0  0  0  0  0  0  0  0  0
   -3.2785    4.3479    4.6536 H   0  0  0  0  0  0  0  0  0  0  0  0
   -5.5488    4.1386    2.2778 H   0  0  0  0  0  0  0  0  0  0  0  0
   -4.2674    3.3740    3.1730 H   0  0  0  0  0  0  0  0  0  0  0  0
   -4.7322    2.3317    5.3803 H   0  0  0  0  0  0  0  0  0  0  0  0
   -6.3756    1.1612    6.8359 H   0  0  0  0  0  0  0  0  0  0  0  0
   -8.1470   -0.8085    6.1580 H   0  0  0  0  0  0  0  0  0  0  0  0
  -10.0019   -2.1586    7.0341 H   0  0  0  0  0  0  0  0  0  0  0  0
  -12.5002    3.0763    8.6146 H   0  0  0  0  0  0  0  0  0  0  0  0
  -13.9928    2.3949    8.5708 H   0  0  0  0  0  0  0  0  0  0  0  0
  -10.9534    3.7169    6.6424 H   0  0  0  0  0  0  0  0  0  0  0  0
   -9.2563    3.7562    7.1371 H   0  0  0  0  0  0  0  0  0  0  0  0
  -11.0398    4.4959    8.8535 H   0  0  0  0  0  0  0  0  0  0  0  0
   -9.5670    4.3952   12.1550 H   0  0  0  0  0  0  0  0  0  0  0  0
   -9.6830    5.2013   10.6377 H   0  0  0  0  0  0  0  0  0  0  0  0
  -10.8597    5.6719   11.8045 H   0  0  0  0  0  0  0  0  0  0  0  0
  -12.0020    4.4482   12.7323 H   0  0  0  0  0  0  0  0  0  0  0  0
  -10.8870    3.0034   12.8215 H   0  0  0  0  0  0  0  0  0  0  0  0
  -11.8186    0.9280   11.2712 H   0  0  0  0  0  0  0  0  0  0  0  0
  -13.8200   -0.4586   11.0345 H   0  0  0  0  0  0  0  0  0  0  0  0
  -16.0076    0.3263   11.8896 H   0  0  0  0  0  0  0  0  0  0  0  0
  -16.1919    2.5793   12.9233 H   0  0  0  0  0  0  0  0  0  0  0  0
  -14.2079    4.0372   13.0856 H   0  0  0  0  0  0  0  0  0  0  0  0
   -9.5413    2.7582    4.3801 H   0  0  0  0  0  0  0  0  0  0  0  0
   -7.9017    3.9790    3.0296 H   0  0  0  0  0  0  0  0  0  0  0  0
  1  2  1  0
  2  3  1  0
  3  4  2  0
  3  5  1  0
  5  6  1  0
  6  7  2  0
  7  8  1  0
  8  9  2  0
  9 10  1  0
 10 11  1  0
 11 12  2  0
 12 13  1  0
 13 14  2  0
 14 15  1  0
 15 16  2  0
 16 17  1  0
 16 18  1  0
 18 19  1  0
 19 20  1  0
 20 21  1  0
 21 22  1  0
 22 23  2  0
 22 24  1  0
 24 25  1  0
 24 26  1  0
 26 27  1  0
 27 28  2  0
 28 29  1  0
 29 30  2  0
 30 31  1  0
 31 32  2  0
  9 33  1  0
 33 34  2  0
 34  6  1  0
 19 10  2  0
 32 27  1  0
 18 13  1  0
  1 35  1  0
  1 36  1  0
  1 37  1  0
  2 38  1  0
  5 39  1  0
  5 40  1  0
  7 41  1  0
  8 42  1  0
 11 43  1  0
 12 44  1  0
 17 45  1  0
 17 46  1  0
 20 47  1  0
 20 48  1  0
 21 49  1  0
 25 50  1  0
 25 51  1  0
 25 52  1  0
 26 53  1  0
 26 54  1  0
 28 55  1  0
 29 56  1  0
 30 57  1  0
 31 58  1  0
 32 59  1  0
 33 60  1  0
 34 61  1  0
M  END
>  <Energy>  (697) 
60.618838890062328

>  <compound_id>  (697) 
3669

>  <target_id>  (697) 
1

>  <reference_id>  (697) 
126

>  <inspiration_ids>  (697) 
[126, 179]

>  <energy_score>  (697) 
17.593097421242817

>  <distance_score>  (697) 
2.4023148245840873

>  <path>  (697) 
/opt/xchem-fragalysis-2/maxwin/BulkDock/SCRATCH/505734/C3669-P126/C3669-P126.minimised.mol

>  <scratch_subdir>  (697) 
/opt/xchem-fragalysis-2/maxwin/BulkDock/SCRATCH/505734/C3669-P126

>  <fragmenstein_runtime>  (697) 
15.24161171913147

>  <fragmenstein_outcome>  (697) 
too moved

>  <fragmenstein_mode>  (697) 
expansion

>  <fragmenstein_error>  (697) 


$$$$
C3669-P179
     RDKit          3D

 61 64  0  0  0  0  0  0  0  0999 V2000
   -4.6239   -0.0841    3.0026 C   0  0  0  0  0  0  0  0  0  0  0  0
   -4.5375   -0.3843    4.4027 N   0  0  0  0  0  0  0  0  0  0  0  0
   -4.7237   -1.6202    5.1163 C   0  0  0  0  0  0  0  0  0  0  0  0
   -4.9212   -2.7324    4.7164 O   0  0  0  0  0  0  0  0  0  0  0  0
   -4.6738   -1.3631    6.6323 C   0  0  0  0  0  0  0  0  0  0  0  0
   -5.9582   -0.7188    7.0883 C   0  0  0  0  0  0  0  0  0  0  0  0
   -6.0393    0.6691    7.2424 C   0  0  0  0  0  0  0  0  0  0  0  0
   -7.2815    1.2819    7.3845 C   0  0  0  0  0  0  0  0  0  0  0  0
   -8.4515    0.5112    7.4014 C   0  0  0  0  0  0  0  0  0  0  0  0
   -9.7581    1.1734    7.2119 C   0  0  0  0  0  0  0  0  0  0  0  0
  -10.4367    1.0085    5.9194 C   0  0  0  0  0  0  0  0  0  0  0  0
  -11.5994    1.6113    5.6319 C   0  0  0  0  0  0  0  0  0  0  0  0
  -12.1723    2.4916    6.5757 C   0  0  0  0  0  0  0  0  0  0  0  0
  -13.2760    3.2023    6.5437 N   0  0  0  0  0  0  0  0  0  0  0  0
  -13.3244    3.9517    7.6885 N   0  0  0  0  0  0  0  0  0  0  0  0
  -12.2386    3.7101    8.3850 C   0  0  0  0  0  0  0  0  0  0  0  0
  -11.8640    4.3781    9.5061 N   0  0  0  0  0  0  0  0  0  0  0  0
  -11.5006    2.6932    7.7749 N   0  0  0  0  0  0  0  0  0  0  0  0
  -10.3342    1.9755    8.1470 C   0  0  0  0  0  0  0  0  0  0  0  0
   -9.8599    2.0606    9.5709 C   0  0  0  0  0  0  0  0  0  0  0  0
  -10.9964    1.8686   10.4239 N   0  0  0  0  0  0  0  0  0  0  0  0
  -11.6195    0.6620   10.9091 C   0  0  0  0  0  0  0  0  0  0  0  0
  -11.3024   -0.4602   10.7884 O   0  0  0  0  0  0  0  0  0  0  0  0
  -12.7942    1.2414   11.5246 N   0  0  0  0  0  0  0  0  0  0  0  0
  -12.5294    1.5270   12.9802 C   0  0  0  0  0  0  0  0  0  0  0  0
  -14.0109    0.5914   12.0924 C   0  0  0  0  0  0  0  0  0  0  0  0
  -15.2733    1.3862   11.8677 C   0  0  0  0  0  0  0  0  0  0  0  0
  -15.4538    2.1176   10.6851 C   0  0  0  0  0  0  0  0  0  0  0  0
  -16.6698    2.7383   10.4241 C   0  0  0  0  0  0  0  0  0  0  0  0
  -17.7157    2.6248   11.3368 C   0  0  0  0  0  0  0  0  0  0  0  0
  -17.5436    1.9061   12.5186 C   0  0  0  0  0  0  0  0  0  0  0  0
  -16.3257    1.2886   12.7857 C   0  0  0  0  0  0  0  0  0  0  0  0
   -8.3629   -0.8825    7.3705 C   0  0  0  0  0  0  0  0  0  0  0  0
   -7.1220   -1.4928    7.2009 C   0  0  0  0  0  0  0  0  0  0  0  0
   -3.6278    0.1794    2.6408 H   0  0  0  0  0  0  0  0  0  0  0  0
   -5.2973    0.7661    2.8722 H   0  0  0  0  0  0  0  0  0  0  0  0
   -5.0098   -0.9498    2.4618 H   0  0  0  0  0  0  0  0  0  0  0  0
   -4.4765    0.3760    5.0691 H   0  0  0  0  0  0  0  0  0  0  0  0
   -3.8054   -0.7435    6.8807 H   0  0  0  0  0  0  0  0  0  0  0  0
   -4.5229   -2.3196    7.1444 H   0  0  0  0  0  0  0  0  0  0  0  0
   -5.1493    1.2898    7.1816 H   0  0  0  0  0  0  0  0  0  0  0  0
   -7.3391    2.3678    7.4092 H   0  0  0  0  0  0  0  0  0  0  0  0
   -9.9829    0.3422    5.1900 H   0  0  0  0  0  0  0  0  0  0  0  0
  -12.1037    1.4582    4.6850 H   0  0  0  0  0  0  0  0  0  0  0  0
  -10.8990    4.6942    9.5408 H   0  0  0  0  0  0  0  0  0  0  0  0
  -12.4846    5.1613    9.7108 H   0  0  0  0  0  0  0  0  0  0  0  0
   -9.4273    3.0407    9.7808 H   0  0  0  0  0  0  0  0  0  0  0  0
   -9.1386    1.2790    9.8210 H   0  0  0  0  0  0  0  0  0  0  0  0
  -11.5923    2.6624   10.6452 H   0  0  0  0  0  0  0  0  0  0  0  0
  -11.6581    2.1984   12.9915 H   0  0  0  0  0  0  0  0  0  0  0  0
  -13.3013    2.1170   13.4991 H   0  0  0  0  0  0  0  0  0  0  0  0
  -12.1735    0.6469   13.5394 H   0  0  0  0  0  0  0  0  0  0  0  0
  -13.9947    0.0803   13.0692 H   0  0  0  0  0  0  0  0  0  0  0  0
  -14.1380   -0.2733   11.4197 H   0  0  0  0  0  0  0  0  0  0  0  0
  -14.6583    2.1825    9.9441 H   0  0  0  0  0  0  0  0  0  0  0  0
  -16.8029    3.2951    9.4997 H   0  0  0  0  0  0  0  0  0  0  0  0
  -18.6697    3.0999   11.1241 H   0  0  0  0  0  0  0  0  0  0  0  0
  -18.3672    1.8120   13.2213 H   0  0  0  0  0  0  0  0  0  0  0  0
  -16.2194    0.6995   13.6920 H   0  0  0  0  0  0  0  0  0  0  0  0
   -9.2638   -1.4943    7.4062 H   0  0  0  0  0  0  0  0  0  0  0  0
   -7.0790   -2.5743    7.0869 H   0  0  0  0  0  0  0  0  0  0  0  0
  1  2  1  0
  2  3  1  0
  3  4  2  0
  3  5  1  0
  5  6  1  0
  6  7  2  0
  7  8  1  0
  8  9  2  0
  9 10  1  0
 10 11  1  0
 11 12  2  0
 12 13  1  0
 13 14  2  0
 14 15  1  0
 15 16  2  0
 16 17  1  0
 16 18  1  0
 18 19  1  0
 19 20  1  0
 20 21  1  0
 21 22  1  0
 22 23  2  0
 22 24  1  0
 24 25  1  0
 24 26  1  0
 26 27  1  0
 27 28  2  0
 28 29  1  0
 29 30  2  0
 30 31  1  0
 31 32  2  0
  9 33  1  0
 33 34  2  0
 34  6  1  0
 19 10  2  0
 32 27  1  0
 18 13  1  0
  1 35  1  0
  1 36  1  0
  1 37  1  0
  2 38  1  0
  5 39  1  0
  5 40  1  0
  7 41  1  0
  8 42  1  0
 11 43  1  0
 12 44  1  0
 17 45  1  0
 17 46  1  0
 20 47  1  0
 20 48  1  0
 21 49  1  0
 25 50  1  0
 25 51  1  0
 25 52  1  0
 26 53  1  0
 26 54  1  0
 28 55  1  0
 29 56  1  0
 30 57  1  0
 31 58  1  0
 32 59  1  0
 33 60  1  0
 34 61  1  0
M  END
>  <Energy>  (698) 
62.741741564345503

>  <compound_id>  (698) 
3669

>  <target_id>  (698) 
1

>  <reference_id>  (698) 
179

>  <inspiration_ids>  (698) 
[126, 179]

>  <energy_score>  (698) 
19.71600009552799

>  <distance_score>  (698) 
3.190568949753748

>  <path>  (698) 
/opt/xchem-fragalysis-2/maxwin/BulkDock/SCRATCH/505734/C3669-P179/C3669-P179.minimised.mol

>  <scratch_subdir>  (698) 
/opt/xchem-fragalysis-2/maxwin/BulkDock/SCRATCH/505734/C3669-P179

>  <fragmenstein_runtime>  (698) 
16.42778491973877

>  <fragmenstein_outcome>  (698) 
too moved

>  <fragmenstein_mode>  (698) 
expansion

>  <fragmenstein_error>  (698) 


$$$$
C3673-P127
     RDKit          3D

 39 41  0  0  0  0  0  0  0  0999 V2000
   -3.5078    5.9319    5.9080 C   0  0  0  0  0  0  0  0  0  0  0  0
   -4.0222    4.9564    4.8911 N   0  0  0  0  0  0  0  0  0  0  0  0
   -3.3758    5.9387    3.9433 C   0  0  0  0  0  0  0  0  0  0  0  0
   -5.3628    4.6670    4.4653 C   0  0  0  0  0  0  0  0  0  0  0  0
   -6.4042    5.1952    4.7511 O   0  0  0  0  0  0  0  0  0  0  0  0
   -5.3395    3.4121    3.5831 C   0  0  0  0  0  0  0  0  0  0  0  0
   -5.8622    2.1705    4.2762 C   0  0  0  0  0  0  0  0  0  0  0  0
   -6.6533    1.2867    3.5383 C   0  0  0  0  0  0  0  0  0  0  0  0
   -7.3029    0.2318    4.1736 C   0  0  0  0  0  0  0  0  0  0  0  0
   -7.1562    0.0210    5.5547 C   0  0  0  0  0  0  0  0  0  0  0  0
   -8.2187   -0.7304    6.2627 C   0  0  0  0  0  0  0  0  0  0  0  0
   -8.9949   -0.0877    7.3375 C   0  0  0  0  0  0  0  0  0  0  0  0
  -10.2638   -0.4396    7.6087 C   0  0  0  0  0  0  0  0  0  0  0  0
  -10.8624   -1.4820    6.8616 C   0  0  0  0  0  0  0  0  0  0  0  0
  -12.1079   -1.8889    6.7389 N   0  0  0  0  0  0  0  0  0  0  0  0
  -12.1043   -2.9727    5.8982 N   0  0  0  0  0  0  0  0  0  0  0  0
  -10.8683   -3.1951    5.5046 C   0  0  0  0  0  0  0  0  0  0  0  0
  -10.4385   -4.1906    4.6929 N   0  0  0  0  0  0  0  0  0  0  0  0
  -10.0379   -2.2253    6.0316 N   0  0  0  0  0  0  0  0  0  0  0  0
   -8.7237   -1.8625    5.7220 C   0  0  0  0  0  0  0  0  0  0  0  0
   -6.2390    0.8033    6.2604 C   0  0  0  0  0  0  0  0  0  0  0  0
   -5.6053    1.8770    5.6265 C   0  0  0  0  0  0  0  0  0  0  0  0
   -3.8510    5.5030    6.8607 H   0  0  0  0  0  0  0  0  0  0  0  0
   -2.4137    5.9600    6.0079 H   0  0  0  0  0  0  0  0  0  0  0  0
   -3.9987    6.9163    5.8921 H   0  0  0  0  0  0  0  0  0  0  0  0
   -2.2817    6.0118    4.0327 H   0  0  0  0  0  0  0  0  0  0  0  0
   -3.8900    6.9104    3.8805 H   0  0  0  0  0  0  0  0  0  0  0  0
   -3.5212    5.5123    2.9394 H   0  0  0  0  0  0  0  0  0  0  0  0
   -4.3390    3.2108    3.1878 H   0  0  0  0  0  0  0  0  0  0  0  0
   -5.9635    3.6507    2.7114 H   0  0  0  0  0  0  0  0  0  0  0  0
   -6.8520    1.4665    2.4837 H   0  0  0  0  0  0  0  0  0  0  0  0
   -8.0241   -0.3396    3.5922 H   0  0  0  0  0  0  0  0  0  0  0  0
   -8.5381    0.7263    7.8932 H   0  0  0  0  0  0  0  0  0  0  0  0
  -10.8467    0.0553    8.3763 H   0  0  0  0  0  0  0  0  0  0  0  0
   -9.5954   -4.6826    4.9952 H   0  0  0  0  0  0  0  0  0  0  0  0
  -11.1623   -4.9126    4.5690 H   0  0  0  0  0  0  0  0  0  0  0  0
   -8.2635   -2.4084    4.9084 H   0  0  0  0  0  0  0  0  0  0  0  0
   -6.1039    0.6685    7.3309 H   0  0  0  0  0  0  0  0  0  0  0  0
   -4.9816    2.5281    6.2337 H   0  0  0  0  0  0  0  0  0  0  0  0
  1  2  1  0
  2  3  1  0
  2  4  1  0
  4  5  2  0
  4  6  1  0
  6  7  1  0
  7  8  2  0
  8  9  1  0
  9 10  2  0
 10 11  1  0
 11 12  1  0
 12 13  2  0
 13 14  1  0
 14 15  2  0
 15 16  1  0
 16 17  2  0
 17 18  1  0
 17 19  1  0
 19 20  1  0
 10 21  1  0
 21 22  2  0
 22  7  1  0
 20 11  2  0
 19 14  1  0
  1 23  1  0
  1 24  1  0
  1 25  1  0
  3 26  1  0
  3 27  1  0
  3 28  1  0
  6 29  1  0
  6 30  1  0
  8 31  1  0
  9 32  1  0
 12 33  1  0
 13 34  1  0
 18 35  1  0
 18 36  1  0
 20 37  1  0
 21 38  1  0
 22 39  1  0
M  END
>  <Energy>  (699) 
137.98044345889724

>  <compound_id>  (699) 
3673

>  <target_id>  (699) 
1

>  <reference_id>  (699) 
127

>  <inspiration_ids>  (699) 
[127, 33]

>  <energy_score>  (699) 
20.636968222474195

>  <distance_score>  (699) 
3.3357839407206535

>  <path>  (699) 
/opt/xchem-fragalysis-2/maxwin/BulkDock/SCRATCH/505734/C3673-P127/C3673-P127.minimised.mol

>  <scratch_subdir>  (699) 
/opt/xchem-fragalysis-2/maxwin/BulkDock/SCRATCH/505734/C3673-P127

>  <fragmenstein_runtime>  (699) 
12.892186641693115

>  <fragmenstein_outcome>  (699) 
too moved

>  <fragmenstein_mode>  (699) 
expansion

>  <fragmenstein_error>  (699) 


$$$$
C3673-P33
     RDKit          3D

 39 41  0  0  0  0  0  0  0  0999 V2000
   -4.5426    4.7800    3.5307 C   0  0  0  0  0  0  0  0  0  0  0  0
   -4.7243    4.2914    4.9382 N   0  0  0  0  0  0  0  0  0  0  0  0
   -6.0276    5.0311    4.7530 C   0  0  0  0  0  0  0  0  0  0  0  0
   -4.0323    4.7084    6.2297 C   0  0  0  0  0  0  0  0  0  0  0  0
   -3.2508    5.5675    6.4328 O   0  0  0  0  0  0  0  0  0  0  0  0
   -4.5426    3.8483    7.4007 C   0  0  0  0  0  0  0  0  0  0  0  0
   -4.9531    2.3998    7.1763 C   0  0  0  0  0  0  0  0  0  0  0  0
   -6.2290    2.1041    6.7172 C   0  0  0  0  0  0  0  0  0  0  0  0
   -6.6125    0.7803    6.5657 C   0  0  0  0  0  0  0  0  0  0  0  0
   -5.7520   -0.2845    6.8996 C   0  0  0  0  0  0  0  0  0  0  0  0
   -6.3219   -1.6028    6.6348 C   0  0  0  0  0  0  0  0  0  0  0  0
   -7.5932   -1.9970    7.2475 C   0  0  0  0  0  0  0  0  0  0  0  0
   -8.5329   -2.6606    6.5512 C   0  0  0  0  0  0  0  0  0  0  0  0
   -8.2541   -3.0346    5.2103 C   0  0  0  0  0  0  0  0  0  0  0  0
   -9.0059   -3.4590    4.2147 N   0  0  0  0  0  0  0  0  0  0  0  0
   -8.1981   -3.6508    3.1119 N   0  0  0  0  0  0  0  0  0  0  0  0
   -6.9698   -3.3367    3.4527 C   0  0  0  0  0  0  0  0  0  0  0  0
   -5.8634   -3.4290    2.6781 N   0  0  0  0  0  0  0  0  0  0  0  0
   -6.9543   -2.8664    4.7554 N   0  0  0  0  0  0  0  0  0  0  0  0
   -5.9793   -2.1500    5.4504 C   0  0  0  0  0  0  0  0  0  0  0  0
   -4.4830   -0.0159    7.3817 C   0  0  0  0  0  0  0  0  0  0  0  0
   -4.1022    1.3255    7.5181 C   0  0  0  0  0  0  0  0  0  0  0  0
   -4.4187    5.8688    3.4238 H   0  0  0  0  0  0  0  0  0  0  0  0
   -3.5397    4.4127    3.2675 H   0  0  0  0  0  0  0  0  0  0  0  0
   -5.1966    4.3054    2.7847 H   0  0  0  0  0  0  0  0  0  0  0  0
   -6.5554    4.9354    5.7116 H   0  0  0  0  0  0  0  0  0  0  0  0
   -6.7180    4.5682    4.0318 H   0  0  0  0  0  0  0  0  0  0  0  0
   -5.9324    6.1251    4.6598 H   0  0  0  0  0  0  0  0  0  0  0  0
   -5.3846    4.3877    7.8536 H   0  0  0  0  0  0  0  0  0  0  0  0
   -3.7458    3.8579    8.1552 H   0  0  0  0  0  0  0  0  0  0  0  0
   -6.9463    2.8851    6.4902 H   0  0  0  0  0  0  0  0  0  0  0  0
   -7.6146    0.5832    6.1833 H   0  0  0  0  0  0  0  0  0  0  0  0
   -7.7951   -1.6708    8.2633 H   0  0  0  0  0  0  0  0  0  0  0  0
   -9.5022   -2.9016    6.9767 H   0  0  0  0  0  0  0  0  0  0  0  0
   -6.0357   -3.8894    1.7853 H   0  0  0  0  0  0  0  0  0  0  0  0
   -5.0696   -3.8695    3.1291 H   0  0  0  0  0  0  0  0  0  0  0  0
   -5.1122   -1.8513    4.8731 H   0  0  0  0  0  0  0  0  0  0  0  0
   -3.8007   -0.8136    7.6584 H   0  0  0  0  0  0  0  0  0  0  0  0
   -3.1160    1.5514    7.9025 H   0  0  0  0  0  0  0  0  0  0  0  0
  1  2  1  0
  2  3  1  0
  2  4  1  0
  4  5  2  0
  4  6  1  0
  6  7  1  0
  7  8  2  0
  8  9  1  0
  9 10  2  0
 10 11  1  0
 11 12  1  0
 12 13  2  0
 13 14  1  0
 14 15  2  0
 15 16  1  0
 16 17  2  0
 17 18  1  0
 17 19  1  0
 19 20  1  0
 10 21  1  0
 21 22  2  0
 22  7  1  0
 20 11  2  0
 19 14  1  0
  1 23  1  0
  1 24  1  0
  1 25  1  0
  3 26  1  0
  3 27  1  0
  3 28  1  0
  6 29  1  0
  6 30  1  0
  8 31  1  0
  9 32  1  0
 12 33  1  0
 13 34  1  0
 18 35  1  0
 18 36  1  0
 20 37  1  0
 21 38  1  0
 22 39  1  0
M  END
>  <Energy>  (700) 
154.0523397002635

>  <compound_id>  (700) 
3673

>  <target_id>  (700) 
1

>  <reference_id>  (700) 
33

>  <inspiration_ids>  (700) 
[127, 33]

>  <energy_score>  (700) 
60.56864098356209

>  <distance_score>  (700) 
2.24953798319402

>  <path>  (700) 
/opt/xchem-fragalysis-2/maxwin/BulkDock/SCRATCH/505734/C3673-P33/C3673-P33.minimised.mol

>  <scratch_subdir>  (700) 
/opt/xchem-fragalysis-2/maxwin/BulkDock/SCRATCH/505734/C3673-P33

>  <fragmenstein_runtime>  (700) 
11.794044256210327

>  <fragmenstein_outcome>  (700) 
too moved

>  <fragmenstein_mode>  (700) 
expansion

>  <fragmenstein_error>  (700) 


$$$$
C3675-P127
     RDKit          3D

 70 73  0  0  0  0  0  0  0  0999 V2000
   -5.0161   -1.5327    6.3732 C   0  0  0  0  0  0  0  0  0  0  0  0
   -6.2247   -1.1740    7.2288 C   0  0  0  0  0  0  0  0  0  0  0  0
   -6.5774    0.3290    7.1810 C   0  0  0  0  0  0  0  0  0  0  0  0
   -7.4681    0.8274    8.3629 C   0  0  0  0  0  0  0  0  0  0  0  0
   -8.9302    0.7859    8.2676 N   0  0  0  0  0  0  0  0  0  0  0  0
   -9.6685    1.8430    8.7835 C   0  0  0  0  0  0  0  0  0  0  0  0
  -11.0113    1.8209    8.8372 C   0  0  0  0  0  0  0  0  0  0  0  0
  -11.7907    2.9894    9.4075 C   0  0  0  0  0  0  0  0  0  0  0  0
  -12.1408    3.9951    8.2972 C   0  0  0  0  0  0  0  0  0  0  0  0
  -13.2496    5.0060    8.6517 C   0  0  0  0  0  0  0  0  0  0  0  0
  -13.5425    5.8674    7.4144 C   0  0  0  0  0  0  0  0  0  0  0  0
  -12.8851    5.9170    9.8397 C   0  0  0  0  0  0  0  0  0  0  0  0
  -13.4741    5.4638   11.1830 C   0  0  0  0  0  0  0  0  0  0  0  0
  -14.0583    4.4254   11.2811 O   0  0  0  0  0  0  0  0  0  0  0  0
  -13.2078    6.4853   12.1563 N   0  0  0  0  0  0  0  0  0  0  0  0
  -13.4765    6.5355   13.5664 C   0  0  0  0  0  0  0  0  0  0  0  0
  -11.7249    0.7121    8.1986 C   0  0  0  0  0  0  0  0  0  0  0  0
  -13.1802    0.6957    7.9891 C   0  0  0  0  0  0  0  0  0  0  0  0
  -13.7763   -0.1914    7.1804 C   0  0  0  0  0  0  0  0  0  0  0  0
  -12.9835   -1.1340    6.4932 C   0  0  0  0  0  0  0  0  0  0  0  0
  -13.2783   -1.9444    5.5076 N   0  0  0  0  0  0  0  0  0  0  0  0
  -12.1336   -2.6242    5.1905 N   0  0  0  0  0  0  0  0  0  0  0  0
  -11.1739   -2.2577    6.0068 C   0  0  0  0  0  0  0  0  0  0  0  0
   -9.9261   -2.7710    6.0224 N   0  0  0  0  0  0  0  0  0  0  0  0
  -11.6363   -1.2313    6.8238 N   0  0  0  0  0  0  0  0  0  0  0  0
  -11.0094   -0.3281    7.6904 C   0  0  0  0  0  0  0  0  0  0  0  0
   -9.5609   -0.4197    8.0137 C   0  0  0  0  0  0  0  0  0  0  0  0
   -8.9812   -1.5006    8.0503 O   0  0  0  0  0  0  0  0  0  0  0  0
   -7.0644    0.8630    5.8487 C   0  0  0  0  0  0  0  0  0  0  0  0
   -6.7300    2.1724    5.4728 C   0  0  0  0  0  0  0  0  0  0  0  0
   -7.2020    2.7119    4.2762 C   0  0  0  0  0  0  0  0  0  0  0  0
   -8.0195    1.9543    3.4291 C   0  0  0  0  0  0  0  0  0  0  0  0
   -8.5509    2.5539    2.1563 C   0  0  0  0  0  0  0  0  0  0  0  0
   -9.5237    3.5477    2.4538 O   0  0  0  0  0  0  0  0  0  0  0  0
   -8.3596    0.6512    3.8031 C   0  0  0  0  0  0  0  0  0  0  0  0
   -7.8834    0.1119    4.9983 C   0  0  0  0  0  0  0  0  0  0  0  0
   -5.2007   -1.3404    5.3123 H   0  0  0  0  0  0  0  0  0  0  0  0
   -4.7798   -2.5961    6.4848 H   0  0  0  0  0  0  0  0  0  0  0  0
   -4.1337   -0.9608    6.6785 H   0  0  0  0  0  0  0  0  0  0  0  0
   -5.9918   -1.4406    8.2632 H   0  0  0  0  0  0  0  0  0  0  0  0
   -7.0474   -1.8124    6.9065 H   0  0  0  0  0  0  0  0  0  0  0  0
   -5.6052    0.8167    7.3600 H   0  0  0  0  0  0  0  0  0  0  0  0
   -7.1889    0.2948    9.2741 H   0  0  0  0  0  0  0  0  0  0  0  0
   -7.2022    1.8825    8.4943 H   0  0  0  0  0  0  0  0  0  0  0  0
   -9.1106    2.6944    9.1610 H   0  0  0  0  0  0  0  0  0  0  0  0
  -12.6848    2.6328    9.9283 H   0  0  0  0  0  0  0  0  0  0  0  0
  -11.1912    3.4974   10.1742 H   0  0  0  0  0  0  0  0  0  0  0  0
  -12.4576    3.4547    7.3956 H   0  0  0  0  0  0  0  0  0  0  0  0
  -11.2289    4.5379    8.0123 H   0  0  0  0  0  0  0  0  0  0  0  0
  -14.1674    4.4449    8.8660 H   0  0  0  0  0  0  0  0  0  0  0  0
  -14.3760    6.5518    7.6055 H   0  0  0  0  0  0  0  0  0  0  0  0
  -12.6689    6.4641    7.1302 H   0  0  0  0  0  0  0  0  0  0  0  0
  -13.8198    5.2420    6.5591 H   0  0  0  0  0  0  0  0  0  0  0  0
  -11.7967    5.9974    9.9461 H   0  0  0  0  0  0  0  0  0  0  0  0
  -13.2741    6.9277    9.6571 H   0  0  0  0  0  0  0  0  0  0  0  0
  -12.6119    7.1903   11.7406 H   0  0  0  0  0  0  0  0  0  0  0  0
  -14.0848    7.4197   13.7690 H   0  0  0  0  0  0  0  0  0  0  0  0
  -14.0097    5.6326   13.8703 H   0  0  0  0  0  0  0  0  0  0  0  0
  -12.5251    6.6192   14.0951 H   0  0  0  0  0  0  0  0  0  0  0  0
  -13.7985    1.4242    8.5030 H   0  0  0  0  0  0  0  0  0  0  0  0
  -14.8486   -0.1934    7.0253 H   0  0  0  0  0  0  0  0  0  0  0  0
   -9.8569   -3.7161    5.6461 H   0  0  0  0  0  0  0  0  0  0  0  0
   -9.4186   -2.6975    6.9130 H   0  0  0  0  0  0  0  0  0  0  0  0
   -6.1107    2.7885    6.1201 H   0  0  0  0  0  0  0  0  0  0  0  0
   -6.9447    3.7346    4.0085 H   0  0  0  0  0  0  0  0  0  0  0  0
   -7.7412    3.0124    1.5794 H   0  0  0  0  0  0  0  0  0  0  0  0
   -9.0201    1.7936    1.5233 H   0  0  0  0  0  0  0  0  0  0  0  0
   -9.9598    3.2746    3.2802 H   0  0  0  0  0  0  0  0  0  0  0  0
   -9.0047    0.0403    3.1739 H   0  0  0  0  0  0  0  0  0  0  0  0
   -8.1792   -0.9022    5.2546 H   0  0  0  0  0  0  0  0  0  0  0  0
  1  2  1  0
  2  3  1  0
  3  4  1  0
  4  5  1  0
  5  6  1  0
  6  7  2  0
  7  8  1  0
  8  9  1  0
  9 10  1  0
 10 11  1  0
 10 12  1  0
 12 13  1  0
 13 14  2  0
 13 15  1  0
 15 16  1  0
  7 17  1  0
 17 18  1  0
 18 19  2  0
 19 20  1  0
 20 21  2  0
 21 22  1  0
 22 23  2  0
 23 24  1  0
 23 25  1  0
 25 26  1  0
 26 27  1  0
 27 28  2  0
  3 29  1  0
 29 30  2  0
 30 31  1  0
 31 32  2  0
 32 33  1  0
 33 34  1  0
 32 35  1  0
 35 36  2  0
 27  5  1  0
 36 29  1  0
 26 17  2  0
 25 20  1  0
  1 37  1  0
  1 38  1  0
  1 39  1  0
  2 40  1  0
  2 41  1  0
  3 42  1  0
  4 43  1  0
  4 44  1  0
  6 45  1  0
  8 46  1  0
  8 47  1  0
  9 48  1  0
  9 49  1  0
 10 50  1  0
 11 51  1  0
 11 52  1  0
 11 53  1  0
 12 54  1  0
 12 55  1  0
 15 56  1  0
 16 57  1  0
 16 58  1  0
 16 59  1  0
 18 60  1  0
 19 61  1  0
 24 62  1  0
 24 63  1  0
 30 64  1  0
 31 65  1  0
 33 66  1  0
 33 67  1  0
 34 68  1  0
 35 69  1  0
 36 70  1  0
M  END
>  <Energy>  (701) 
46.253743338905039

>  <compound_id>  (701) 
3675

>  <target_id>  (701) 
1

>  <reference_id>  (701) 
127

>  <inspiration_ids>  (701) 
[127, 51]

>  <energy_score>  (701) 
-84.8161125547229

>  <distance_score>  (701) 
3.084432736556299

>  <path>  (701) 
/opt/xchem-fragalysis-2/maxwin/BulkDock/SCRATCH/505734/C3675-P127/C3675-P127.minimised.mol

>  <scratch_subdir>  (701) 
/opt/xchem-fragalysis-2/maxwin/BulkDock/SCRATCH/505734/C3675-P127

>  <fragmenstein_runtime>  (701) 
49.09370422363281

>  <fragmenstein_outcome>  (701) 
too moved

>  <fragmenstein_mode>  (701) 
expansion

>  <fragmenstein_error>  (701) 


$$$$
C3675-P51
     RDKit          3D

 70 73  0  0  0  0  0  0  0  0999 V2000
   -7.6094   -2.4900    7.4316 C   0  0  0  0  0  0  0  0  0  0  0  0
   -6.5681   -1.4755    7.8873 C   0  0  0  0  0  0  0  0  0  0  0  0
   -7.0239   -0.0040    8.0598 C   0  0  0  0  0  0  0  0  0  0  0  0
   -8.3618    0.1481    8.9138 C   0  0  0  0  0  0  0  0  0  0  0  0
   -9.2648    1.3617    8.8114 N   0  0  0  0  0  0  0  0  0  0  0  0
  -10.2362    1.4160    9.8488 C   0  0  0  0  0  0  0  0  0  0  0  0
  -11.5029    0.9616    9.6723 C   0  0  0  0  0  0  0  0  0  0  0  0
  -12.5547    1.0162   10.7548 C   0  0  0  0  0  0  0  0  0  0  0  0
  -13.8220    1.8216   10.4245 C   0  0  0  0  0  0  0  0  0  0  0  0
  -13.6134    3.3425   10.2303 C   0  0  0  0  0  0  0  0  0  0  0  0
  -14.9186    4.0966   10.5218 C   0  0  0  0  0  0  0  0  0  0  0  0
  -13.0312    3.7489    8.8597 C   0  0  0  0  0  0  0  0  0  0  0  0
  -13.8098    3.2596    7.6304 C   0  0  0  0  0  0  0  0  0  0  0  0
  -14.9402    2.9728    7.6566 O   0  0  0  0  0  0  0  0  0  0  0  0
  -12.8029    3.2706    6.4503 N   0  0  0  0  0  0  0  0  0  0  0  0
  -13.0045    3.0235    5.0529 C   0  0  0  0  0  0  0  0  0  0  0  0
  -11.7544    0.2212    8.4309 C   0  0  0  0  0  0  0  0  0  0  0  0
  -12.6786   -0.9050    8.2794 C   0  0  0  0  0  0  0  0  0  0  0  0
  -12.5041   -1.8183    7.3049 C   0  0  0  0  0  0  0  0  0  0  0  0
  -11.4662   -1.6440    6.3572 C   0  0  0  0  0  0  0  0  0  0  0  0
  -10.8921   -2.4172    5.4636 N   0  0  0  0  0  0  0  0  0  0  0  0
  -10.0590   -1.6305    4.6999 N   0  0  0  0  0  0  0  0  0  0  0  0
  -10.1739   -0.3991    5.1370 C   0  0  0  0  0  0  0  0  0  0  0  0
   -9.8270    0.7428    4.5082 N   0  0  0  0  0  0  0  0  0  0  0  0
  -10.8515   -0.4158    6.3317 N   0  0  0  0  0  0  0  0  0  0  0  0
  -10.9246    0.4678    7.3835 C   0  0  0  0  0  0  0  0  0  0  0  0
   -9.8898    1.4983    7.5669 C   0  0  0  0  0  0  0  0  0  0  0  0
   -9.6915    2.3908    6.7509 O   0  0  0  0  0  0  0  0  0  0  0  0
   -6.8703    0.7811    6.7787 C   0  0  0  0  0  0  0  0  0  0  0  0
   -6.6242    2.1576    6.8603 C   0  0  0  0  0  0  0  0  0  0  0  0
   -6.4786    2.9323    5.7118 C   0  0  0  0  0  0  0  0  0  0  0  0
   -6.5673    2.3461    4.4495 C   0  0  0  0  0  0  0  0  0  0  0  0
   -6.4741    3.1940    3.2105 C   0  0  0  0  0  0  0  0  0  0  0  0
   -7.6515    3.9736    3.0433 O   0  0  0  0  0  0  0  0  0  0  0  0
   -6.7749    0.9717    4.3626 C   0  0  0  0  0  0  0  0  0  0  0  0
   -6.9093    0.1963    5.5116 C   0  0  0  0  0  0  0  0  0  0  0  0
   -8.1863   -2.1531    6.5732 H   0  0  0  0  0  0  0  0  0  0  0  0
   -7.1168   -3.4283    7.1545 H   0  0  0  0  0  0  0  0  0  0  0  0
   -8.3143   -2.7271    8.2336 H   0  0  0  0  0  0  0  0  0  0  0  0
   -5.6920   -1.5347    7.2286 H   0  0  0  0  0  0  0  0  0  0  0  0
   -6.2054   -1.7778    8.8583 H   0  0  0  0  0  0  0  0  0  0  0  0
   -6.2451    0.4258    8.7052 H   0  0  0  0  0  0  0  0  0  0  0  0
   -8.0607    0.0777    9.9664 H   0  0  0  0  0  0  0  0  0  0  0  0
   -8.9936   -0.7238    8.7215 H   0  0  0  0  0  0  0  0  0  0  0  0
   -9.8851    1.8531   10.7761 H   0  0  0  0  0  0  0  0  0  0  0  0
  -12.8461   -0.0070   11.0243 H   0  0  0  0  0  0  0  0  0  0  0  0
  -12.1153    1.4354   11.6703 H   0  0  0  0  0  0  0  0  0  0  0  0
  -14.5049    1.6742   11.2725 H   0  0  0  0  0  0  0  0  0  0  0  0
  -14.3323    1.3824    9.5612 H   0  0  0  0  0  0  0  0  0  0  0  0
  -12.8956    3.6813   10.9902 H   0  0  0  0  0  0  0  0  0  0  0  0
  -14.7931    5.1732   10.3658 H   0  0  0  0  0  0  0  0  0  0  0  0
  -15.7443    3.7525    9.8926 H   0  0  0  0  0  0  0  0  0  0  0  0
  -15.2189    3.9502   11.5655 H   0  0  0  0  0  0  0  0  0  0  0  0
  -12.9955    4.8440    8.7917 H   0  0  0  0  0  0  0  0  0  0  0  0
  -11.9950    3.4109    8.7991 H   0  0  0  0  0  0  0  0  0  0  0  0
  -11.9158    3.6546    6.7640 H   0  0  0  0  0  0  0  0  0  0  0  0
  -12.9924    3.9811    4.5278 H   0  0  0  0  0  0  0  0  0  0  0  0
  -12.1949    2.3915    4.6862 H   0  0  0  0  0  0  0  0  0  0  0  0
  -13.9693    2.5336    4.9056 H   0  0  0  0  0  0  0  0  0  0  0  0
  -13.4701   -1.0456    9.0075 H   0  0  0  0  0  0  0  0  0  0  0  0
  -13.1402   -2.6899    7.2180 H   0  0  0  0  0  0  0  0  0  0  0  0
   -9.5572    1.5481    5.0807 H   0  0  0  0  0  0  0  0  0  0  0  0
   -9.2196    0.6223    3.7057 H   0  0  0  0  0  0  0  0  0  0  0  0
   -6.6016    2.6554    7.8280 H   0  0  0  0  0  0  0  0  0  0  0  0
   -6.3311    4.0066    5.8074 H   0  0  0  0  0  0  0  0  0  0  0  0
   -5.6126    3.8671    3.2737 H   0  0  0  0  0  0  0  0  0  0  0  0
   -6.3434    2.5762    2.3160 H   0  0  0  0  0  0  0  0  0  0  0  0
   -8.2932    3.6939    3.7196 H   0  0  0  0  0  0  0  0  0  0  0  0
   -6.8432    0.4826    3.3910 H   0  0  0  0  0  0  0  0  0  0  0  0
   -7.0670   -0.8670    5.3624 H   0  0  0  0  0  0  0  0  0  0  0  0
  1  2  1  0
  2  3  1  0
  3  4  1  0
  4  5  1  0
  5  6  1  0
  6  7  2  0
  7  8  1  0
  8  9  1  0
  9 10  1  0
 10 11  1  0
 10 12  1  0
 12 13  1  0
 13 14  2  0
 13 15  1  0
 15 16  1  0
  7 17  1  0
 17 18  1  0
 18 19  2  0
 19 20  1  0
 20 21  2  0
 21 22  1  0
 22 23  2  0
 23 24  1  0
 23 25  1  0
 25 26  1  0
 26 27  1  0
 27 28  2  0
  3 29  1  0
 29 30  2  0
 30 31  1  0
 31 32  2  0
 32 33  1  0
 33 34  1  0
 32 35  1  0
 35 36  2  0
 27  5  1  0
 36 29  1  0
 26 17  2  0
 25 20  1  0
  1 37  1  0
  1 38  1  0
  1 39  1  0
  2 40  1  0
  2 41  1  0
  3 42  1  0
  4 43  1  0
  4 44  1  0
  6 45  1  0
  8 46  1  0
  8 47  1  0
  9 48  1  0
  9 49  1  0
 10 50  1  0
 11 51  1  0
 11 52  1  0
 11 53  1  0
 12 54  1  0
 12 55  1  0
 15 56  1  0
 16 57  1  0
 16 58  1  0
 16 59  1  0
 18 60  1  0
 19 61  1  0
 24 62  1  0
 24 63  1  0
 30 64  1  0
 31 65  1  0
 33 66  1  0
 33 67  1  0
 34 68  1  0
 35 69  1  0
 36 70  1  0
M  END
>  <Energy>  (702) 
110.07182948769523

>  <compound_id>  (702) 
3675

>  <target_id>  (702) 
1

>  <reference_id>  (702) 
51

>  <inspiration_ids>  (702) 
[127, 51]

>  <energy_score>  (702) 
-27.12694653236673

>  <distance_score>  (702) 
2.591831135541937

>  <path>  (702) 
/opt/xchem-fragalysis-2/maxwin/BulkDock/SCRATCH/505734/C3675-P51/C3675-P51.minimised.mol

>  <scratch_subdir>  (702) 
/opt/xchem-fragalysis-2/maxwin/BulkDock/SCRATCH/505734/C3675-P51

>  <fragmenstein_runtime>  (702) 
39.9026882648468

>  <fragmenstein_outcome>  (702) 
too moved

>  <fragmenstein_mode>  (702) 
expansion

>  <fragmenstein_error>  (702) 


$$$$
C3675-P127
     RDKit          3D

 70 73  0  0  0  0  0  0  0  0999 V2000
  -13.5706    7.1084    6.1111 C   0  0  0  0  0  0  0  0  0  0  0  0
  -12.0735    6.8383    6.0383 C   0  0  0  0  0  0  0  0  0  0  0  0
  -11.6154    5.4012    6.3756 C   0  0  0  0  0  0  0  0  0  0  0  0
  -11.8940    5.0160    7.8570 C   0  0  0  0  0  0  0  0  0  0  0  0
  -11.6058    3.6132    8.2061 N   0  0  0  0  0  0  0  0  0  0  0  0
  -12.6013    2.8648    8.7907 C   0  0  0  0  0  0  0  0  0  0  0  0
  -12.4192    1.5833    9.1277 C   0  0  0  0  0  0  0  0  0  0  0  0
  -13.5824    0.7871    9.6784 C   0  0  0  0  0  0  0  0  0  0  0  0
  -14.1099   -0.3051    8.7300 C   0  0  0  0  0  0  0  0  0  0  0  0
  -14.4904    0.1291    7.2928 C   0  0  0  0  0  0  0  0  0  0  0  0
  -15.9845    0.4543    7.2193 C   0  0  0  0  0  0  0  0  0  0  0  0
  -14.1352   -0.9819    6.2686 C   0  0  0  0  0  0  0  0  0  0  0  0
  -12.6518   -0.9488    5.8664 C   0  0  0  0  0  0  0  0  0  0  0  0
  -12.0041    0.0181    5.9421 O   0  0  0  0  0  0  0  0  0  0  0  0
  -12.2925   -2.3562    5.3373 N   0  0  0  0  0  0  0  0  0  0  0  0
  -11.0431   -2.8877    4.8829 C   0  0  0  0  0  0  0  0  0  0  0  0
  -11.1304    0.9545    8.8273 C   0  0  0  0  0  0  0  0  0  0  0  0
  -10.8237   -0.4258    9.1768 C   0  0  0  0  0  0  0  0  0  0  0  0
   -9.7631   -1.0842    8.6936 C   0  0  0  0  0  0  0  0  0  0  0  0
   -8.8210   -0.4208    7.8983 C   0  0  0  0  0  0  0  0  0  0  0  0
   -7.6891   -0.8349    7.3768 N   0  0  0  0  0  0  0  0  0  0  0  0
   -7.1181    0.2321    6.7470 N   0  0  0  0  0  0  0  0  0  0  0  0
   -7.9136    1.2691    6.8930 C   0  0  0  0  0  0  0  0  0  0  0  0
   -7.6938    2.4884    6.3578 N   0  0  0  0  0  0  0  0  0  0  0  0
   -9.0173    0.9310    7.6753 N   0  0  0  0  0  0  0  0  0  0  0  0
  -10.1470    1.6325    8.1637 C   0  0  0  0  0  0  0  0  0  0  0  0
  -10.3279    3.1047    7.9952 C   0  0  0  0  0  0  0  0  0  0  0  0
   -9.3815    3.8407    7.7110 O   0  0  0  0  0  0  0  0  0  0  0  0
  -12.0867    4.3834    5.3462 C   0  0  0  0  0  0  0  0  0  0  0  0
  -11.1931    3.9806    4.3422 C   0  0  0  0  0  0  0  0  0  0  0  0
  -11.5265    2.9561    3.4576 C   0  0  0  0  0  0  0  0  0  0  0  0
  -12.7600    2.3035    3.5575 C   0  0  0  0  0  0  0  0  0  0  0  0
  -13.0535    1.1158    2.6811 C   0  0  0  0  0  0  0  0  0  0  0  0
  -11.9939    0.1708    2.7533 O   0  0  0  0  0  0  0  0  0  0  0  0
  -13.6827    2.7471    4.5111 C   0  0  0  0  0  0  0  0  0  0  0  0
  -13.3489    3.7772    5.3972 C   0  0  0  0  0  0  0  0  0  0  0  0
  -13.7650    8.1633    5.8897 H   0  0  0  0  0  0  0  0  0  0  0  0
  -14.1244    6.5168    5.3774 H   0  0  0  0  0  0  0  0  0  0  0  0
  -13.9759    6.9039    7.1053 H   0  0  0  0  0  0  0  0  0  0  0  0
  -11.5692    7.5326    6.7226 H   0  0  0  0  0  0  0  0  0  0  0  0
  -11.7284    7.0980    5.0291 H   0  0  0  0  0  0  0  0  0  0  0  0
  -10.5208    5.4389    6.2868 H   0  0  0  0  0  0  0  0  0  0  0  0
  -12.9373    5.2335    8.1093 H   0  0  0  0  0  0  0  0  0  0  0  0
  -11.2761    5.6457    8.5103 H   0  0  0  0  0  0  0  0  0  0  0  0
  -13.5579    3.3540    8.9466 H   0  0  0  0  0  0  0  0  0  0  0  0
  -13.2980    0.3352   10.6371 H   0  0  0  0  0  0  0  0  0  0  0  0
  -14.4193    1.4578    9.9150 H   0  0  0  0  0  0  0  0  0  0  0  0
  -13.3758   -1.1128    8.6773 H   0  0  0  0  0  0  0  0  0  0  0  0
  -14.9914   -0.7301    9.2218 H   0  0  0  0  0  0  0  0  0  0  0  0
  -13.9542    1.0416    7.0202 H   0  0  0  0  0  0  0  0  0  0  0  0
  -16.5955   -0.4288    7.4357 H   0  0  0  0  0  0  0  0  0  0  0  0
  -16.2549    0.8140    6.2209 H   0  0  0  0  0  0  0  0  0  0  0  0
  -16.2474    1.2372    7.9383 H   0  0  0  0  0  0  0  0  0  0  0  0
  -14.7012   -0.8326    5.3406 H   0  0  0  0  0  0  0  0  0  0  0  0
  -14.4054   -1.9642    6.6694 H   0  0  0  0  0  0  0  0  0  0  0  0
  -13.1282   -2.9461    5.3407 H   0  0  0  0  0  0  0  0  0  0  0  0
  -10.2895   -2.0972    4.8787 H   0  0  0  0  0  0  0  0  0  0  0  0
  -10.7390   -3.6886    5.5597 H   0  0  0  0  0  0  0  0  0  0  0  0
  -11.1787   -3.2872    3.8757 H   0  0  0  0  0  0  0  0  0  0  0  0
  -11.4918   -0.9416    9.8527 H   0  0  0  0  0  0  0  0  0  0  0  0
   -9.5659   -2.1190    8.9323 H   0  0  0  0  0  0  0  0  0  0  0  0
   -6.7350    2.6836    6.0989 H   0  0  0  0  0  0  0  0  0  0  0  0
   -8.1525    3.2917    6.8001 H   0  0  0  0  0  0  0  0  0  0  0  0
  -10.2005    4.4218    4.2754 H   0  0  0  0  0  0  0  0  0  0  0  0
  -10.7927    2.6237    2.7252 H   0  0  0  0  0  0  0  0  0  0  0  0
  -13.9716    0.6087    2.9936 H   0  0  0  0  0  0  0  0  0  0  0  0
  -13.1732    1.4336    1.6408 H   0  0  0  0  0  0  0  0  0  0  0  0
  -11.7002    0.1518    3.6876 H   0  0  0  0  0  0  0  0  0  0  0  0
  -14.6451    2.2500    4.6142 H   0  0  0  0  0  0  0  0  0  0  0  0
  -14.0680    4.0581    6.1614 H   0  0  0  0  0  0  0  0  0  0  0  0
  1  2  1  0
  2  3  1  0
  3  4  1  0
  4  5  1  0
  5  6  1  0
  6  7  2  0
  7  8  1  0
  8  9  1  0
  9 10  1  0
 10 11  1  0
 10 12  1  0
 12 13  1  0
 13 14  2  0
 13 15  1  0
 15 16  1  0
  7 17  1  0
 17 18  1  0
 18 19  2  0
 19 20  1  0
 20 21  2  0
 21 22  1  0
 22 23  2  0
 23 24  1  0
 23 25  1  0
 25 26  1  0
 26 27  1  0
 27 28  2  0
  3 29  1  0
 29 30  2  0
 30 31  1  0
 31 32  2  0
 32 33  1  0
 33 34  1  0
 32 35  1  0
 35 36  2  0
 27  5  1  0
 36 29  1  0
 26 17  2  0
 25 20  1  0
  1 37  1  0
  1 38  1  0
  1 39  1  0
  2 40  1  0
  2 41  1  0
  3 42  1  0
  4 43  1  0
  4 44  1  0
  6 45  1  0
  8 46  1  0
  8 47  1  0
  9 48  1  0
  9 49  1  0
 10 50  1  0
 11 51  1  0
 11 52  1  0
 11 53  1  0
 12 54  1  0
 12 55  1  0
 15 56  1  0
 16 57  1  0
 16 58  1  0
 16 59  1  0
 18 60  1  0
 19 61  1  0
 24 62  1  0
 24 63  1  0
 30 64  1  0
 31 65  1  0
 33 66  1  0
 33 67  1  0
 34 68  1  0
 35 69  1  0
 36 70  1  0
M  END
>  <Energy>  (703) 
48.597974305991556

>  <compound_id>  (703) 
3675

>  <target_id>  (703) 
1

>  <reference_id>  (703) 
127

>  <inspiration_ids>  (703) 
[127, 65]

>  <energy_score>  (703) 
-88.60080171407401

>  <distance_score>  (703) 
5.021939895580443

>  <path>  (703) 
/opt/xchem-fragalysis-2/maxwin/BulkDock/SCRATCH/505734/C3675-P127/C3675-P127.minimised.mol

>  <scratch_subdir>  (703) 
/opt/xchem-fragalysis-2/maxwin/BulkDock/SCRATCH/505734/C3675-P127

>  <fragmenstein_runtime>  (703) 
21.895992040634155

>  <fragmenstein_outcome>  (703) 
too moved

>  <fragmenstein_mode>  (703) 
expansion

>  <fragmenstein_error>  (703) 


$$$$
C3675-P65
     RDKit          3D

 70 73  0  0  0  0  0  0  0  0999 V2000
  -11.4083    6.2195   11.5877 C   0  0  0  0  0  0  0  0  0  0  0  0
  -10.2663    5.8767   10.6397 C   0  0  0  0  0  0  0  0  0  0  0  0
  -10.5580    6.0541    9.1314 C   0  0  0  0  0  0  0  0  0  0  0  0
  -11.6988    5.1517    8.5941 C   0  0  0  0  0  0  0  0  0  0  0  0
  -11.4041    3.7121    8.6916 N   0  0  0  0  0  0  0  0  0  0  0  0
  -12.0589    2.9613    9.6376 C   0  0  0  0  0  0  0  0  0  0  0  0
  -11.8721    1.6402    9.7596 C   0  0  0  0  0  0  0  0  0  0  0  0
  -12.6110    0.7779   10.7854 C   0  0  0  0  0  0  0  0  0  0  0  0
  -13.6328    1.4332   11.7342 C   0  0  0  0  0  0  0  0  0  0  0  0
  -15.1340    1.3145   11.3747 C   0  0  0  0  0  0  0  0  0  0  0  0
  -15.6788   -0.0667   11.7475 C   0  0  0  0  0  0  0  0  0  0  0  0
  -15.5458    1.7797    9.9638 C   0  0  0  0  0  0  0  0  0  0  0  0
  -15.6830    0.6887    8.8873 C   0  0  0  0  0  0  0  0  0  0  0  0
  -16.6644    0.0031    8.8866 O   0  0  0  0  0  0  0  0  0  0  0  0
  -14.5575    0.7096    8.0057 N   0  0  0  0  0  0  0  0  0  0  0  0
  -14.2073   -0.1430    6.9048 C   0  0  0  0  0  0  0  0  0  0  0  0
  -10.8776    0.9887    8.8782 C   0  0  0  0  0  0  0  0  0  0  0  0
  -10.5733   -0.4439    8.9706 C   0  0  0  0  0  0  0  0  0  0  0  0
   -9.6951   -1.0703    8.1745 C   0  0  0  0  0  0  0  0  0  0  0  0
   -8.9801   -0.3312    7.2145 C   0  0  0  0  0  0  0  0  0  0  0  0
   -8.0963   -0.7075    6.3198 N   0  0  0  0  0  0  0  0  0  0  0  0
   -7.6558    0.4147    5.6800 N   0  0  0  0  0  0  0  0  0  0  0  0
   -8.2697    1.4565    6.1962 C   0  0  0  0  0  0  0  0  0  0  0  0
   -8.0138    2.7370    5.8580 N   0  0  0  0  0  0  0  0  0  0  0  0
   -9.2017    1.0419    7.1514 N   0  0  0  0  0  0  0  0  0  0  0  0
  -10.1755    1.7023    7.9478 C   0  0  0  0  0  0  0  0  0  0  0  0
  -10.5102    3.1556    7.7829 C   0  0  0  0  0  0  0  0  0  0  0  0
  -10.0414    3.8305    6.8674 O   0  0  0  0  0  0  0  0  0  0  0  0
  -10.7450    7.5230    8.7623 C   0  0  0  0  0  0  0  0  0  0  0  0
   -9.6355    8.2657    8.3289 C   0  0  0  0  0  0  0  0  0  0  0  0
   -9.7654    9.6102    7.9701 C   0  0  0  0  0  0  0  0  0  0  0  0
  -11.0070   10.2487    8.0494 C   0  0  0  0  0  0  0  0  0  0  0  0
  -11.1628   11.6835    7.6234 C   0  0  0  0  0  0  0  0  0  0  0  0
  -11.6172   11.7584    6.2780 O   0  0  0  0  0  0  0  0  0  0  0  0
  -12.1172    9.5149    8.4815 C   0  0  0  0  0  0  0  0  0  0  0  0
  -11.9867    8.1694    8.8395 C   0  0  0  0  0  0  0  0  0  0  0  0
  -11.1095    6.0019   12.6194 H   0  0  0  0  0  0  0  0  0  0  0  0
  -11.6651    7.2817   11.5413 H   0  0  0  0  0  0  0  0  0  0  0  0
  -12.3072    5.6351   11.3757 H   0  0  0  0  0  0  0  0  0  0  0  0
   -9.9660    4.8379   10.8257 H   0  0  0  0  0  0  0  0  0  0  0  0
   -9.3995    6.4925   10.9141 H   0  0  0  0  0  0  0  0  0  0  0  0
   -9.6433    5.7251    8.6170 H   0  0  0  0  0  0  0  0  0  0  0  0
  -12.6509    5.3622    9.0954 H   0  0  0  0  0  0  0  0  0  0  0  0
  -11.8657    5.3778    7.5316 H   0  0  0  0  0  0  0  0  0  0  0  0
  -12.7502    3.5091   10.2660 H   0  0  0  0  0  0  0  0  0  0  0  0
  -13.0921   -0.0660   10.2783 H   0  0  0  0  0  0  0  0  0  0  0  0
  -11.8353    0.3472   11.4345 H   0  0  0  0  0  0  0  0  0  0  0  0
  -13.5017    0.9614   12.7193 H   0  0  0  0  0  0  0  0  0  0  0  0
  -13.3908    2.4844   11.9197 H   0  0  0  0  0  0  0  0  0  0  0  0
  -15.6314    2.0147   12.0635 H   0  0  0  0  0  0  0  0  0  0  0  0
  -15.5234   -0.2661   12.8133 H   0  0  0  0  0  0  0  0  0  0  0  0
  -15.1803   -0.8600   11.1866 H   0  0  0  0  0  0  0  0  0  0  0  0
  -16.7563   -0.1302   11.5630 H   0  0  0  0  0  0  0  0  0  0  0  0
  -14.9148    2.6050    9.6222 H   0  0  0  0  0  0  0  0  0  0  0  0
  -16.5495    2.2244   10.0365 H   0  0  0  0  0  0  0  0  0  0  0  0
  -13.9538    1.4777    8.2608 H   0  0  0  0  0  0  0  0  0  0  0  0
  -13.5790    0.4178    6.2088 H   0  0  0  0  0  0  0  0  0  0  0  0
  -13.6582   -1.0040    7.2959 H   0  0  0  0  0  0  0  0  0  0  0  0
  -15.1211   -0.4790    6.4103 H   0  0  0  0  0  0  0  0  0  0  0  0
  -11.0902   -1.0357    9.7156 H   0  0  0  0  0  0  0  0  0  0  0  0
   -9.5047   -2.1347    8.2628 H   0  0  0  0  0  0  0  0  0  0  0  0
   -8.7460    3.4357    6.0198 H   0  0  0  0  0  0  0  0  0  0  0  0
   -7.5622    2.8614    4.9584 H   0  0  0  0  0  0  0  0  0  0  0  0
   -8.6551    7.7974    8.2553 H   0  0  0  0  0  0  0  0  0  0  0  0
   -8.8886   10.1534    7.6235 H   0  0  0  0  0  0  0  0  0  0  0  0
  -11.8825   12.2023    8.2665 H   0  0  0  0  0  0  0  0  0  0  0  0
  -10.2113   12.2210    7.6990 H   0  0  0  0  0  0  0  0  0  0  0  0
  -11.5810   10.8622    5.9010 H   0  0  0  0  0  0  0  0  0  0  0  0
  -13.0958    9.9886    8.5371 H   0  0  0  0  0  0  0  0  0  0  0  0
  -12.8734    7.6413    9.1793 H   0  0  0  0  0  0  0  0  0  0  0  0
  1  2  1  0
  2  3  1  0
  3  4  1  0
  4  5  1  0
  5  6  1  0
  6  7  2  0
  7  8  1  0
  8  9  1  0
  9 10  1  0
 10 11  1  0
 10 12  1  0
 12 13  1  0
 13 14  2  0
 13 15  1  0
 15 16  1  0
  7 17  1  0
 17 18  1  0
 18 19  2  0
 19 20  1  0
 20 21  2  0
 21 22  1  0
 22 23  2  0
 23 24  1  0
 23 25  1  0
 25 26  1  0
 26 27  1  0
 27 28  2  0
  3 29  1  0
 29 30  2  0
 30 31  1  0
 31 32  2  0
 32 33  1  0
 33 34  1  0
 32 35  1  0
 35 36  2  0
 27  5  1  0
 36 29  1  0
 26 17  2  0
 25 20  1  0
  1 37  1  0
  1 38  1  0
  1 39  1  0
  2 40  1  0
  2 41  1  0
  3 42  1  0
  4 43  1  0
  4 44  1  0
  6 45  1  0
  8 46  1  0
  8 47  1  0
  9 48  1  0
  9 49  1  0
 10 50  1  0
 11 51  1  0
 11 52  1  0
 11 53  1  0
 12 54  1  0
 12 55  1  0
 15 56  1  0
 16 57  1  0
 16 58  1  0
 16 59  1  0
 18 60  1  0
 19 61  1  0
 24 62  1  0
 24 63  1  0
 30 64  1  0
 31 65  1  0
 33 66  1  0
 33 67  1  0
 34 68  1  0
 35 69  1  0
 36 70  1  0
M  END
>  <Energy>  (704) 
46.903636959959982

>  <compound_id>  (704) 
3675

>  <target_id>  (704) 
1

>  <reference_id>  (704) 
65

>  <inspiration_ids>  (704) 
[127, 65]

>  <energy_score>  (704) 
-84.16621893366943

>  <distance_score>  (704) 
6.683779292891311

>  <path>  (704) 
/opt/xchem-fragalysis-2/maxwin/BulkDock/SCRATCH/505734/C3675-P65/C3675-P65.minimised.mol

>  <scratch_subdir>  (704) 
/opt/xchem-fragalysis-2/maxwin/BulkDock/SCRATCH/505734/C3675-P65

>  <fragmenstein_runtime>  (704) 
28.58236527442932

>  <fragmenstein_outcome>  (704) 
too moved

>  <fragmenstein_mode>  (704) 
expansion

>  <fragmenstein_error>  (704) 


$$$$
C3676-P127
     RDKit          3D

 60 64  0  0  0  0  0  0  0  0999 V2000
   -5.5528   -3.3289    4.2020 C   0  0  0  0  0  0  0  0  0  0  0  0
   -5.6914   -1.9069    4.1759 N   0  0  0  0  0  0  0  0  0  0  0  0
   -4.8257   -0.7975    4.8326 C   0  0  0  0  0  0  0  0  0  0  0  0
   -3.8248   -0.8729    5.4299 O   0  0  0  0  0  0  0  0  0  0  0  0
   -5.5061    0.5294    4.5250 C   0  0  0  0  0  0  0  0  0  0  0  0
   -6.6883    0.7882    5.4165 C   0  0  0  0  0  0  0  0  0  0  0  0
   -7.9786    0.4792    4.9791 C   0  0  0  0  0  0  0  0  0  0  0  0
   -9.0916    0.7020    5.7940 C   0  0  0  0  0  0  0  0  0  0  0  0
   -8.9351    1.1762    7.0985 C   0  0  0  0  0  0  0  0  0  0  0  0
   -9.9387    0.8995    8.2463 C   0  0  0  0  0  0  0  0  0  0  0  0
   -9.2235   -0.2343    9.0222 C   0  0  0  0  0  0  0  0  0  0  0  0
   -9.1125   -1.5142    8.1746 C   0  0  0  0  0  0  0  0  0  0  0  0
  -10.2505   -1.6953    7.2427 C   0  0  0  0  0  0  0  0  0  0  0  0
  -10.3672   -2.6257    6.3244 N   0  0  0  0  0  0  0  0  0  0  0  0
  -11.5641   -2.4294    5.6953 N   0  0  0  0  0  0  0  0  0  0  0  0
  -12.1349   -1.3654    6.2058 C   0  0  0  0  0  0  0  0  0  0  0  0
  -13.3100   -0.8369    5.8198 N   0  0  0  0  0  0  0  0  0  0  0  0
  -11.3372   -0.8433    7.1850 N   0  0  0  0  0  0  0  0  0  0  0  0
  -11.4130    0.3731    8.0079 C   0  0  0  0  0  0  0  0  0  0  0  0
  -12.1011    0.0299    9.3818 C   0  0  0  0  0  0  0  0  0  0  0  0
  -13.5931   -0.1010    9.1514 C   0  0  0  0  0  0  0  0  0  0  0  0
  -14.0461    1.0107    8.1917 C   0  0  0  0  0  0  0  0  0  0  0  0
  -15.0298    1.9952    8.7933 C   0  0  0  0  0  0  0  0  0  0  0  0
  -16.0738    1.4923    9.6015 C   0  0  0  0  0  0  0  0  0  0  0  0
  -17.0449    2.3358   10.1485 C   0  0  0  0  0  0  0  0  0  0  0  0
  -17.0168    3.6978    9.8748 C   0  0  0  0  0  0  0  0  0  0  0  0
  -16.0320    4.2087    9.0366 C   0  0  0  0  0  0  0  0  0  0  0  0
  -15.0610    3.3638    8.4878 C   0  0  0  0  0  0  0  0  0  0  0  0
  -12.5118    1.7124    7.4995 S   0  0  0  0  0  0  0  0  0  0  0  0
  -12.5982    1.7927    6.0518 O   0  0  0  0  0  0  0  0  0  0  0  0
  -12.1242    2.8924    8.2572 O   0  0  0  0  0  0  0  0  0  0  0  0
   -7.6442    1.5983    7.4782 C   0  0  0  0  0  0  0  0  0  0  0  0
   -6.5293    1.3701    6.6719 C   0  0  0  0  0  0  0  0  0  0  0  0
   -4.5007   -3.5744    4.3491 H   0  0  0  0  0  0  0  0  0  0  0  0
   -5.9170   -3.7405    3.2589 H   0  0  0  0  0  0  0  0  0  0  0  0
   -6.1490   -3.7138    5.0319 H   0  0  0  0  0  0  0  0  0  0  0  0
   -6.5422   -1.4989    3.8075 H   0  0  0  0  0  0  0  0  0  0  0  0
   -4.7725    1.3323    4.6439 H   0  0  0  0  0  0  0  0  0  0  0  0
   -5.7954    0.5587    3.4671 H   0  0  0  0  0  0  0  0  0  0  0  0
   -8.1518    0.0686    3.9865 H   0  0  0  0  0  0  0  0  0  0  0  0
  -10.0600    0.4239    5.3887 H   0  0  0  0  0  0  0  0  0  0  0  0
   -9.9651    1.7940    8.8813 H   0  0  0  0  0  0  0  0  0  0  0  0
   -8.2263    0.0781    9.3463 H   0  0  0  0  0  0  0  0  0  0  0  0
   -9.7398   -0.4498    9.9614 H   0  0  0  0  0  0  0  0  0  0  0  0
   -9.0652   -2.3964    8.8103 H   0  0  0  0  0  0  0  0  0  0  0  0
   -8.1764   -1.5070    7.6039 H   0  0  0  0  0  0  0  0  0  0  0  0
  -13.2212    0.0566    5.3232 H   0  0  0  0  0  0  0  0  0  0  0  0
  -13.7685   -1.4702    5.1537 H   0  0  0  0  0  0  0  0  0  0  0  0
  -11.9216    0.8372   10.1051 H   0  0  0  0  0  0  0  0  0  0  0  0
  -11.7312   -0.8889    9.8372 H   0  0  0  0  0  0  0  0  0  0  0  0
  -14.1017   -0.1140   10.1190 H   0  0  0  0  0  0  0  0  0  0  0  0
  -13.7939   -1.0675    8.6818 H   0  0  0  0  0  0  0  0  0  0  0  0
  -14.5819    0.5605    7.3505 H   0  0  0  0  0  0  0  0  0  0  0  0
  -16.1652    0.4257    9.7988 H   0  0  0  0  0  0  0  0  0  0  0  0
  -17.8305    1.9236   10.7757 H   0  0  0  0  0  0  0  0  0  0  0  0
  -17.7713    4.3568   10.2944 H   0  0  0  0  0  0  0  0  0  0  0  0
  -16.0196    5.2687    8.7952 H   0  0  0  0  0  0  0  0  0  0  0  0
  -14.3409    3.8154    7.8090 H   0  0  0  0  0  0  0  0  0  0  0  0
   -7.4840    2.0209    8.4664 H   0  0  0  0  0  0  0  0  0  0  0  0
   -5.5407    1.6425    7.0347 H   0  0  0  0  0  0  0  0  0  0  0  0
  1  2  1  0
  2  3  1  0
  3  4  2  0
  3  5  1  0
  5  6  1  0
  6  7  2  0
  7  8  1  0
  8  9  2  0
  9 10  1  0
 10 11  1  0
 11 12  1  0
 12 13  1  0
 13 14  2  0
 14 15  1  0
 15 16  2  0
 16 17  1  0
 16 18  1  0
 18 19  1  0
 19 20  1  0
 20 21  1  0
 21 22  1  0
 22 23  1  0
 23 24  2  0
 24 25  1  0
 25 26  2  0
 26 27  1  0
 27 28  2  0
 22 29  1  0
 29 30  2  0
 29 31  2  0
  9 32  1  0
 32 33  2  0
 33  6  1  0
 19 10  1  0
 28 23  1  0
 18 13  1  0
 29 19  1  0
  1 34  1  0
  1 35  1  0
  1 36  1  0
  2 37  1  0
  5 38  1  0
  5 39  1  0
  7 40  1  0
  8 41  1  0
 10 42  1  0
 11 43  1  0
 11 44  1  0
 12 45  1  0
 12 46  1  0
 17 47  1  0
 17 48  1  0
 20 49  1  0
 20 50  1  0
 21 51  1  0
 21 52  1  0
 22 53  1  0
 24 54  1  0
 25 55  1  0
 26 56  1  0
 27 57  1  0
 28 58  1  0
 32 59  1  0
 33 60  1  0
M  END
>  <Energy>  (705) 
82.445317173921126

>  <compound_id>  (705) 
3676

>  <target_id>  (705) 
1

>  <reference_id>  (705) 
127

>  <inspiration_ids>  (705) 
[127, 69]

>  <energy_score>  (705) 
-54.779859021934215

>  <distance_score>  (705) 
2.532112567851174

>  <path>  (705) 
/opt/xchem-fragalysis-2/maxwin/BulkDock/SCRATCH/505734/C3676-P127/C3676-P127.minimised.mol

>  <scratch_subdir>  (705) 
/opt/xchem-fragalysis-2/maxwin/BulkDock/SCRATCH/505734/C3676-P127

>  <fragmenstein_runtime>  (705) 
24.38977360725403

>  <fragmenstein_outcome>  (705) 
too moved

>  <fragmenstein_mode>  (705) 
expansion

>  <fragmenstein_error>  (705) 


$$$$
C3676-P69
     RDKit          3D

 60 64  0  0  0  0  0  0  0  0999 V2000
   -4.0610   -1.0589    3.4930 C   0  0  0  0  0  0  0  0  0  0  0  0
   -4.6632    0.2284    3.6582 N   0  0  0  0  0  0  0  0  0  0  0  0
   -5.1998    1.1485    2.6940 C   0  0  0  0  0  0  0  0  0  0  0  0
   -5.2096    1.1092    1.4971 O   0  0  0  0  0  0  0  0  0  0  0  0
   -5.8050    2.3734    3.3993 C   0  0  0  0  0  0  0  0  0  0  0  0
   -6.7793    2.0587    4.5150 C   0  0  0  0  0  0  0  0  0  0  0  0
   -7.7188    1.0317    4.3853 C   0  0  0  0  0  0  0  0  0  0  0  0
   -8.5849    0.7156    5.4339 C   0  0  0  0  0  0  0  0  0  0  0  0
   -8.5404    1.4218    6.6413 C   0  0  0  0  0  0  0  0  0  0  0  0
   -9.2520    0.9794    7.9280 C   0  0  0  0  0  0  0  0  0  0  0  0
   -8.1422    0.4246    8.8637 C   0  0  0  0  0  0  0  0  0  0  0  0
   -7.5358   -0.8551    8.3085 C   0  0  0  0  0  0  0  0  0  0  0  0
   -8.5579   -1.7598    7.7355 C   0  0  0  0  0  0  0  0  0  0  0  0
   -8.3504   -2.9882    7.3244 N   0  0  0  0  0  0  0  0  0  0  0  0
   -9.4739   -3.3923    6.6618 N   0  0  0  0  0  0  0  0  0  0  0  0
  -10.3387   -2.4056    6.6667 C   0  0  0  0  0  0  0  0  0  0  0  0
  -11.4884   -2.3821    5.9697 N   0  0  0  0  0  0  0  0  0  0  0  0
   -9.8526   -1.3743    7.4261 N   0  0  0  0  0  0  0  0  0  0  0  0
  -10.4204   -0.0782    7.8626 C   0  0  0  0  0  0  0  0  0  0  0  0
  -11.0353   -0.2669    9.3100 C   0  0  0  0  0  0  0  0  0  0  0  0
  -12.5630   -0.1174    9.3187 C   0  0  0  0  0  0  0  0  0  0  0  0
  -13.0831   -0.2712    7.8942 C   0  0  0  0  0  0  0  0  0  0  0  0
  -14.4750    0.2406    7.5865 C   0  0  0  0  0  0  0  0  0  0  0  0
  -15.3147    0.7967    8.5654 C   0  0  0  0  0  0  0  0  0  0  0  0
  -16.6091    1.2208    8.2485 C   0  0  0  0  0  0  0  0  0  0  0  0
  -17.0947    1.0822    6.9521 C   0  0  0  0  0  0  0  0  0  0  0  0
  -16.2879    0.5154    5.9719 C   0  0  0  0  0  0  0  0  0  0  0  0
  -14.9940    0.0950    6.2871 C   0  0  0  0  0  0  0  0  0  0  0  0
  -11.8309    0.6126    6.9458 S   0  0  0  0  0  0  0  0  0  0  0  0
  -11.8257    0.1703    5.5631 O   0  0  0  0  0  0  0  0  0  0  0  0
  -11.9334    2.0285    7.2575 O   0  0  0  0  0  0  0  0  0  0  0  0
   -7.6641    2.5196    6.7235 C   0  0  0  0  0  0  0  0  0  0  0  0
   -6.7912    2.8308    5.6793 C   0  0  0  0  0  0  0  0  0  0  0  0
   -3.9896   -1.3030    2.4309 H   0  0  0  0  0  0  0  0  0  0  0  0
   -3.0691   -1.0314    3.9457 H   0  0  0  0  0  0  0  0  0  0  0  0
   -4.6770   -1.7995    4.0078 H   0  0  0  0  0  0  0  0  0  0  0  0
   -4.7631    0.6257    4.5855 H   0  0  0  0  0  0  0  0  0  0  0  0
   -4.9649    2.9682    3.7793 H   0  0  0  0  0  0  0  0  0  0  0  0
   -6.3284    2.9822    2.6520 H   0  0  0  0  0  0  0  0  0  0  0  0
   -7.7778    0.4451    3.4685 H   0  0  0  0  0  0  0  0  0  0  0  0
   -9.2525   -0.1216    5.2623 H   0  0  0  0  0  0  0  0  0  0  0  0
   -9.6482    1.8944    8.3906 H   0  0  0  0  0  0  0  0  0  0  0  0
   -7.3417    1.1544    9.0049 H   0  0  0  0  0  0  0  0  0  0  0  0
   -8.5367    0.2311    9.8665 H   0  0  0  0  0  0  0  0  0  0  0  0
   -6.9696   -1.3597    9.0893 H   0  0  0  0  0  0  0  0  0  0  0  0
   -6.8060   -0.6153    7.5253 H   0  0  0  0  0  0  0  0  0  0  0  0
  -11.6397   -1.5468    5.3881 H   0  0  0  0  0  0  0  0  0  0  0  0
  -11.5276   -3.1770    5.3245 H   0  0  0  0  0  0  0  0  0  0  0  0
  -10.7431   -1.2213    9.7541 H   0  0  0  0  0  0  0  0  0  0  0  0
  -10.6541    0.4972    9.9986 H   0  0  0  0  0  0  0  0  0  0  0  0
  -13.0345   -0.8293   10.0012 H   0  0  0  0  0  0  0  0  0  0  0  0
  -12.7870    0.8838    9.7093 H   0  0  0  0  0  0  0  0  0  0  0  0
  -13.0448   -1.3284    7.6197 H   0  0  0  0  0  0  0  0  0  0  0  0
  -14.9870    0.9169    9.5943 H   0  0  0  0  0  0  0  0  0  0  0  0
  -17.2373    1.6633    9.0172 H   0  0  0  0  0  0  0  0  0  0  0  0
  -18.0987    1.4158    6.7049 H   0  0  0  0  0  0  0  0  0  0  0  0
  -16.6611    0.3996    4.9572 H   0  0  0  0  0  0  0  0  0  0  0  0
  -14.3945   -0.3498    5.4939 H   0  0  0  0  0  0  0  0  0  0  0  0
   -7.6284    3.1259    7.6284 H   0  0  0  0  0  0  0  0  0  0  0  0
   -6.1227    3.6830    5.7849 H   0  0  0  0  0  0  0  0  0  0  0  0
  1  2  1  0
  2  3  1  0
  3  4  2  0
  3  5  1  0
  5  6  1  0
  6  7  2  0
  7  8  1  0
  8  9  2  0
  9 10  1  0
 10 11  1  0
 11 12  1  0
 12 13  1  0
 13 14  2  0
 14 15  1  0
 15 16  2  0
 16 17  1  0
 16 18  1  0
 18 19  1  0
 19 20  1  0
 20 21  1  0
 21 22  1  0
 22 23  1  0
 23 24  2  0
 24 25  1  0
 25 26  2  0
 26 27  1  0
 27 28  2  0
 22 29  1  0
 29 30  2  0
 29 31  2  0
  9 32  1  0
 32 33  2  0
 33  6  1  0
 19 10  1  0
 28 23  1  0
 18 13  1  0
 29 19  1  0
  1 34  1  0
  1 35  1  0
  1 36  1  0
  2 37  1  0
  5 38  1  0
  5 39  1  0
  7 40  1  0
  8 41  1  0
 10 42  1  0
 11 43  1  0
 11 44  1  0
 12 45  1  0
 12 46  1  0
 17 47  1  0
 17 48  1  0
 20 49  1  0
 20 50  1  0
 21 51  1  0
 21 52  1  0
 22 53  1  0
 24 54  1  0
 25 55  1  0
 26 56  1  0
 27 57  1  0
 28 58  1  0
 32 59  1  0
 33 60  1  0
M  END
>  <Energy>  (706) 
58.870469244516094

>  <compound_id>  (706) 
3676

>  <target_id>  (706) 
1

>  <reference_id>  (706) 
69

>  <inspiration_ids>  (706) 
[127, 69]

>  <energy_score>  (706) 
-82.1340343798928

>  <distance_score>  (706) 
3.375859744875455

>  <path>  (706) 
/opt/xchem-fragalysis-2/maxwin/BulkDock/SCRATCH/505734/C3676-P69/C3676-P69.minimised.mol

>  <scratch_subdir>  (706) 
/opt/xchem-fragalysis-2/maxwin/BulkDock/SCRATCH/505734/C3676-P69

>  <fragmenstein_runtime>  (706) 
27.81589651107788

>  <fragmenstein_outcome>  (706) 
too moved

>  <fragmenstein_mode>  (706) 
expansion

>  <fragmenstein_error>  (706) 


$$$$
C3676-P127
     RDKit          3D

 60 64  0  0  0  0  0  0  0  0999 V2000
  -10.2610   -3.8823    3.2592 C   0  0  0  0  0  0  0  0  0  0  0  0
   -9.0400   -3.3954    3.8384 N   0  0  0  0  0  0  0  0  0  0  0  0
   -7.6467   -3.1432    3.1938 C   0  0  0  0  0  0  0  0  0  0  0  0
   -7.2611   -3.3662    2.1132 O   0  0  0  0  0  0  0  0  0  0  0  0
   -6.7372   -2.5253    4.2723 C   0  0  0  0  0  0  0  0  0  0  0  0
   -7.2425   -1.2394    4.8808 C   0  0  0  0  0  0  0  0  0  0  0  0
   -6.6435   -0.6907    6.0107 C   0  0  0  0  0  0  0  0  0  0  0  0
   -7.2453    0.3912    6.6661 C   0  0  0  0  0  0  0  0  0  0  0  0
   -8.5422    0.8328    6.3024 C   0  0  0  0  0  0  0  0  0  0  0  0
   -9.6013    1.4892    7.3059 C   0  0  0  0  0  0  0  0  0  0  0  0
   -8.9025    1.6118    8.6615 C   0  0  0  0  0  0  0  0  0  0  0  0
   -8.6620    0.2095    9.2705 C   0  0  0  0  0  0  0  0  0  0  0  0
   -9.2695   -0.9363    8.4837 C   0  0  0  0  0  0  0  0  0  0  0  0
   -8.7494   -2.1077    8.1877 N   0  0  0  0  0  0  0  0  0  0  0  0
   -9.5578   -2.6975    7.2352 N   0  0  0  0  0  0  0  0  0  0  0  0
  -10.5521   -1.8776    6.9661 C   0  0  0  0  0  0  0  0  0  0  0  0
  -11.5886   -2.0901    6.1397 N   0  0  0  0  0  0  0  0  0  0  0  0
  -10.4069   -0.7552    7.7249 N   0  0  0  0  0  0  0  0  0  0  0  0
  -10.9321    0.6108    7.6424 C   0  0  0  0  0  0  0  0  0  0  0  0
  -11.6622    0.8967    9.0411 C   0  0  0  0  0  0  0  0  0  0  0  0
  -12.9474    0.0723    9.0635 C   0  0  0  0  0  0  0  0  0  0  0  0
  -13.5877    0.1684    7.6749 C   0  0  0  0  0  0  0  0  0  0  0  0
  -14.9276    0.8522    7.5645 C   0  0  0  0  0  0  0  0  0  0  0  0
  -15.4686    1.6681    8.5685 C   0  0  0  0  0  0  0  0  0  0  0  0
  -16.7341    2.2453    8.4172 C   0  0  0  0  0  0  0  0  0  0  0  0
  -17.4804    2.0120    7.2656 C   0  0  0  0  0  0  0  0  0  0  0  0
  -16.9615    1.2023    6.2616 C   0  0  0  0  0  0  0  0  0  0  0  0
  -15.6984    0.6277    6.4092 C   0  0  0  0  0  0  0  0  0  0  0  0
  -12.3471    0.9850    6.6044 S   0  0  0  0  0  0  0  0  0  0  0  0
  -12.5261    2.4288    6.6506 O   0  0  0  0  0  0  0  0  0  0  0  0
  -12.2499    0.3209    5.3189 O   0  0  0  0  0  0  0  0  0  0  0  0
   -8.9839    0.4429    5.0474 C   0  0  0  0  0  0  0  0  0  0  0  0
   -8.3284   -0.5588    4.3364 C   0  0  0  0  0  0  0  0  0  0  0  0
  -10.0610   -4.2682    2.2574 H   0  0  0  0  0  0  0  0  0  0  0  0
  -10.6666   -4.6690    3.8977 H   0  0  0  0  0  0  0  0  0  0  0  0
  -10.9699   -3.0535    3.2017 H   0  0  0  0  0  0  0  0  0  0  0  0
   -9.0058   -3.1544    4.8326 H   0  0  0  0  0  0  0  0  0  0  0  0
   -5.7583   -2.3348    3.8186 H   0  0  0  0  0  0  0  0  0  0  0  0
   -6.6028   -3.2801    5.0569 H   0  0  0  0  0  0  0  0  0  0  0  0
   -5.7403   -1.1326    6.4241 H   0  0  0  0  0  0  0  0  0  0  0  0
   -6.7303    0.7579    7.5458 H   0  0  0  0  0  0  0  0  0  0  0  0
   -9.8642    2.4818    6.9248 H   0  0  0  0  0  0  0  0  0  0  0  0
   -9.5043    2.2161    9.3510 H   0  0  0  0  0  0  0  0  0  0  0  0
   -7.9653    2.1727    8.5736 H   0  0  0  0  0  0  0  0  0  0  0  0
   -7.5794    0.0740    9.3402 H   0  0  0  0  0  0  0  0  0  0  0  0
   -9.0451    0.1959   10.2942 H   0  0  0  0  0  0  0  0  0  0  0  0
  -11.6042   -3.0028    5.6861 H   0  0  0  0  0  0  0  0  0  0  0  0
  -11.8238   -1.3767    5.4418 H   0  0  0  0  0  0  0  0  0  0  0  0
  -11.9020    1.9640    9.1323 H   0  0  0  0  0  0  0  0  0  0  0  0
  -11.0844    0.6276    9.9264 H   0  0  0  0  0  0  0  0  0  0  0  0
  -13.5906    0.3497    9.9011 H   0  0  0  0  0  0  0  0  0  0  0  0
  -12.6853   -0.9726    9.2447 H   0  0  0  0  0  0  0  0  0  0  0  0
  -13.7021   -0.8533    7.2925 H   0  0  0  0  0  0  0  0  0  0  0  0
  -14.9188    1.9034    9.4742 H   0  0  0  0  0  0  0  0  0  0  0  0
  -17.1329    2.8866    9.1985 H   0  0  0  0  0  0  0  0  0  0  0  0
  -18.4595    2.4655    7.1436 H   0  0  0  0  0  0  0  0  0  0  0  0
  -17.5284    1.0164    5.3512 H   0  0  0  0  0  0  0  0  0  0  0  0
  -15.3245   -0.0044    5.6015 H   0  0  0  0  0  0  0  0  0  0  0  0
   -9.9085    0.8366    4.6316 H   0  0  0  0  0  0  0  0  0  0  0  0
   -8.7687   -0.8536    3.3852 H   0  0  0  0  0  0  0  0  0  0  0  0
  1  2  1  0
  2  3  1  0
  3  4  2  0
  3  5  1  0
  5  6  1  0
  6  7  2  0
  7  8  1  0
  8  9  2  0
  9 10  1  0
 10 11  1  0
 11 12  1  0
 12 13  1  0
 13 14  2  0
 14 15  1  0
 15 16  2  0
 16 17  1  0
 16 18  1  0
 18 19  1  0
 19 20  1  0
 20 21  1  0
 21 22  1  0
 22 23  1  0
 23 24  2  0
 24 25  1  0
 25 26  2  0
 26 27  1  0
 27 28  2  0
 22 29  1  0
 29 30  2  0
 29 31  2  0
  9 32  1  0
 32 33  2  0
 33  6  1  0
 19 10  1  0
 28 23  1  0
 18 13  1  0
 29 19  1  0
  1 34  1  0
  1 35  1  0
  1 36  1  0
  2 37  1  0
  5 38  1  0
  5 39  1  0
  7 40  1  0
  8 41  1  0
 10 42  1  0
 11 43  1  0
 11 44  1  0
 12 45  1  0
 12 46  1  0
 17 47  1  0
 17 48  1  0
 20 49  1  0
 20 50  1  0
 21 51  1  0
 21 52  1  0
 22 53  1  0
 24 54  1  0
 25 55  1  0
 26 56  1  0
 27 57  1  0
 28 58  1  0
 32 59  1  0
 33 60  1  0
M  END
>  <Energy>  (707) 
101.70886923449736

>  <compound_id>  (707) 
3676

>  <target_id>  (707) 
1

>  <reference_id>  (707) 
127

>  <inspiration_ids>  (707) 
[127, 73]

>  <energy_score>  (707) 
-35.51630696135828

>  <distance_score>  (707) 
2.6836835609878826

>  <path>  (707) 
/opt/xchem-fragalysis-2/maxwin/BulkDock/SCRATCH/505734/C3676-P127/C3676-P127.minimised.mol

>  <scratch_subdir>  (707) 
/opt/xchem-fragalysis-2/maxwin/BulkDock/SCRATCH/505734/C3676-P127

>  <fragmenstein_runtime>  (707) 
24.78495216369629

>  <fragmenstein_outcome>  (707) 
too moved

>  <fragmenstein_mode>  (707) 
expansion

>  <fragmenstein_error>  (707) 


$$$$
C3676-P73
     RDKit          3D

 60 64  0  0  0  0  0  0  0  0999 V2000
   -6.3934   -3.9212    2.2214 C   0  0  0  0  0  0  0  0  0  0  0  0
   -6.3019   -3.8037    3.6488 N   0  0  0  0  0  0  0  0  0  0  0  0
   -5.6036   -2.7297    4.5305 C   0  0  0  0  0  0  0  0  0  0  0  0
   -5.0638   -1.7376    4.2298 O   0  0  0  0  0  0  0  0  0  0  0  0
   -5.7319   -3.1905    5.9871 C   0  0  0  0  0  0  0  0  0  0  0  0
   -6.6088   -2.3113    6.8211 C   0  0  0  0  0  0  0  0  0  0  0  0
   -7.9584   -2.6028    6.9801 C   0  0  0  0  0  0  0  0  0  0  0  0
   -8.7970   -1.7233    7.6598 C   0  0  0  0  0  0  0  0  0  0  0  0
   -8.3269   -0.5161    8.1756 C   0  0  0  0  0  0  0  0  0  0  0  0
   -9.2943    0.6319    8.6295 C   0  0  0  0  0  0  0  0  0  0  0  0
   -8.8657    1.8924    7.8327 C   0  0  0  0  0  0  0  0  0  0  0  0
   -9.0917    1.6913    6.3336 C   0  0  0  0  0  0  0  0  0  0  0  0
  -10.3068    0.8924    6.0176 C   0  0  0  0  0  0  0  0  0  0  0  0
  -10.7660    0.6194    4.8175 N   0  0  0  0  0  0  0  0  0  0  0  0
  -11.8899   -0.1457    4.9653 N   0  0  0  0  0  0  0  0  0  0  0  0
  -12.0846   -0.3523    6.2446 C   0  0  0  0  0  0  0  0  0  0  0  0
  -13.0897   -1.0778    6.7790 N   0  0  0  0  0  0  0  0  0  0  0  0
  -11.1145    0.2960    6.9637 N   0  0  0  0  0  0  0  0  0  0  0  0
  -10.8810    0.4719    8.3997 C   0  0  0  0  0  0  0  0  0  0  0  0
  -11.5079   -0.6197    9.3204 C   0  0  0  0  0  0  0  0  0  0  0  0
  -12.8784   -0.2178    9.8891 C   0  0  0  0  0  0  0  0  0  0  0  0
  -13.3382    1.0669    9.2202 C   0  0  0  0  0  0  0  0  0  0  0  0
  -14.4596    1.7380    9.9696 C   0  0  0  0  0  0  0  0  0  0  0  0
  -15.6877    1.0439   10.0403 C   0  0  0  0  0  0  0  0  0  0  0  0
  -16.7835    1.5821   10.7170 C   0  0  0  0  0  0  0  0  0  0  0  0
  -16.6753    2.8235   11.3345 C   0  0  0  0  0  0  0  0  0  0  0  0
  -15.4748    3.5258   11.2692 C   0  0  0  0  0  0  0  0  0  0  0  0
  -14.3763    2.9904   10.5895 C   0  0  0  0  0  0  0  0  0  0  0  0
  -11.8153    1.9549    9.0020 S   0  0  0  0  0  0  0  0  0  0  0  0
  -11.9732    2.9402    7.9513 O   0  0  0  0  0  0  0  0  0  0  0  0
  -11.2739    2.3347   10.2954 O   0  0  0  0  0  0  0  0  0  0  0  0
   -6.9320   -0.3119    8.1274 C   0  0  0  0  0  0  0  0  0  0  0  0
   -6.0877   -1.1828    7.4386 C   0  0  0  0  0  0  0  0  0  0  0  0
   -7.4264   -4.1486    1.9536 H   0  0  0  0  0  0  0  0  0  0  0  0
   -6.0785   -2.9842    1.7579 H   0  0  0  0  0  0  0  0  0  0  0  0
   -5.7422   -4.7369    1.9005 H   0  0  0  0  0  0  0  0  0  0  0  0
   -6.5955   -4.5808    4.2302 H   0  0  0  0  0  0  0  0  0  0  0  0
   -6.1294   -4.2049    6.0567 H   0  0  0  0  0  0  0  0  0  0  0  0
   -4.7216   -3.2200    6.4136 H   0  0  0  0  0  0  0  0  0  0  0  0
   -8.3873   -3.4995    6.5370 H   0  0  0  0  0  0  0  0  0  0  0  0
   -9.8422   -2.0031    7.6958 H   0  0  0  0  0  0  0  0  0  0  0  0
   -9.1054    0.8038    9.6966 H   0  0  0  0  0  0  0  0  0  0  0  0
   -9.4212    2.7718    8.1716 H   0  0  0  0  0  0  0  0  0  0  0  0
   -7.8209    2.1708    8.0084 H   0  0  0  0  0  0  0  0  0  0  0  0
   -9.1645    2.6710    5.8469 H   0  0  0  0  0  0  0  0  0  0  0  0
   -8.2238    1.1924    5.8861 H   0  0  0  0  0  0  0  0  0  0  0  0
  -13.7679   -1.3214    6.0456 H   0  0  0  0  0  0  0  0  0  0  0  0
  -12.7996   -1.9866    7.1343 H   0  0  0  0  0  0  0  0  0  0  0  0
  -10.8392   -0.8375   10.1622 H   0  0  0  0  0  0  0  0  0  0  0  0
  -11.6242   -1.5417    8.7654 H   0  0  0  0  0  0  0  0  0  0  0  0
  -12.7790   -0.0775   10.9741 H   0  0  0  0  0  0  0  0  0  0  0  0
  -13.6079   -1.0195    9.7470 H   0  0  0  0  0  0  0  0  0  0  0  0
  -13.7103    0.8851    8.2084 H   0  0  0  0  0  0  0  0  0  0  0  0
  -15.8006    0.0765    9.5525 H   0  0  0  0  0  0  0  0  0  0  0  0
  -17.7215    1.0359   10.7552 H   0  0  0  0  0  0  0  0  0  0  0  0
  -17.5253    3.2492   11.8606 H   0  0  0  0  0  0  0  0  0  0  0  0
  -15.3880    4.4989   11.7469 H   0  0  0  0  0  0  0  0  0  0  0  0
  -13.4653    3.5845   10.5657 H   0  0  0  0  0  0  0  0  0  0  0  0
   -6.4884    0.5768    8.5703 H   0  0  0  0  0  0  0  0  0  0  0  0
   -5.0284   -0.9460    7.3596 H   0  0  0  0  0  0  0  0  0  0  0  0
  1  2  1  0
  2  3  1  0
  3  4  2  0
  3  5  1  0
  5  6  1  0
  6  7  2  0
  7  8  1  0
  8  9  2  0
  9 10  1  0
 10 11  1  0
 11 12  1  0
 12 13  1  0
 13 14  2  0
 14 15  1  0
 15 16  2  0
 16 17  1  0
 16 18  1  0
 18 19  1  0
 19 20  1  0
 20 21  1  0
 21 22  1  0
 22 23  1  0
 23 24  2  0
 24 25  1  0
 25 26  2  0
 26 27  1  0
 27 28  2  0
 22 29  1  0
 29 30  2  0
 29 31  2  0
  9 32  1  0
 32 33  2  0
 33  6  1  0
 19 10  1  0
 28 23  1  0
 18 13  1  0
 29 19  1  0
  1 34  1  0
  1 35  1  0
  1 36  1  0
  2 37  1  0
  5 38  1  0
  5 39  1  0
  7 40  1  0
  8 41  1  0
 10 42  1  0
 11 43  1  0
 11 44  1  0
 12 45  1  0
 12 46  1  0
 17 47  1  0
 17 48  1  0
 20 49  1  0
 20 50  1  0
 21 51  1  0
 21 52  1  0
 22 53  1  0
 24 54  1  0
 25 55  1  0
 26 56  1  0
 27 57  1  0
 28 58  1  0
 32 59  1  0
 33 60  1  0
M  END
>  <Energy>  (708) 
80.650657187758057

>  <compound_id>  (708) 
3676

>  <target_id>  (708) 
1

>  <reference_id>  (708) 
73

>  <inspiration_ids>  (708) 
[127, 73]

>  <energy_score>  (708) 
-56.5745190081023

>  <distance_score>  (708) 
2.869784570111036

>  <path>  (708) 
/opt/xchem-fragalysis-2/maxwin/BulkDock/SCRATCH/505734/C3676-P73/C3676-P73.minimised.mol

>  <scratch_subdir>  (708) 
/opt/xchem-fragalysis-2/maxwin/BulkDock/SCRATCH/505734/C3676-P73

>  <fragmenstein_runtime>  (708) 
22.799324989318848

>  <fragmenstein_outcome>  (708) 
too moved

>  <fragmenstein_mode>  (708) 
expansion

>  <fragmenstein_error>  (708) 


$$$$
C3677-P127
     RDKit          3D

 57 61  0  0  0  0  0  0  0  0999 V2000
   -8.0712   -2.8006    2.4808 C   0  0  0  0  0  0  0  0  0  0  0  0
   -7.4881   -2.9884    3.7759 N   0  0  0  0  0  0  0  0  0  0  0  0
   -6.0622   -2.6646    4.2953 C   0  0  0  0  0  0  0  0  0  0  0  0
   -5.1689   -2.1246    3.7691 O   0  0  0  0  0  0  0  0  0  0  0  0
   -5.9555   -3.2213    5.7147 C   0  0  0  0  0  0  0  0  0  0  0  0
   -6.6059   -2.3374    6.7286 C   0  0  0  0  0  0  0  0  0  0  0  0
   -7.8458   -2.6557    7.2662 C   0  0  0  0  0  0  0  0  0  0  0  0
   -8.5440   -1.6942    7.9831 C   0  0  0  0  0  0  0  0  0  0  0  0
   -8.0513   -0.3849    8.1184 C   0  0  0  0  0  0  0  0  0  0  0  0
   -9.0867    0.7713    8.0916 C   0  0  0  0  0  0  0  0  0  0  0  0
   -9.0133    1.2032    6.8037 C   0  0  0  0  0  0  0  0  0  0  0  0
   -9.8221    0.4449    5.9373 N   0  0  0  0  0  0  0  0  0  0  0  0
   -9.5782    0.0192    4.6503 C   0  0  0  0  0  0  0  0  0  0  0  0
   -8.5982    0.5293    3.8693 N   0  0  0  0  0  0  0  0  0  0  0  0
  -10.4134   -0.9499    4.3540 N   0  0  0  0  0  0  0  0  0  0  0  0
  -11.3076   -1.0915    5.3929 N   0  0  0  0  0  0  0  0  0  0  0  0
  -10.9243   -0.2837    6.3542 C   0  0  0  0  0  0  0  0  0  0  0  0
  -11.3808   -0.0223    7.6712 C   0  0  0  0  0  0  0  0  0  0  0  0
  -10.5371    0.5951    8.5350 C   0  0  0  0  0  0  0  0  0  0  0  0
  -10.9193    1.2264    9.7100 N   0  0  0  0  0  0  0  0  0  0  0  0
  -12.0963    0.9647   10.5568 C   0  0  0  0  0  0  0  0  0  0  0  0
  -13.4740    0.7942    9.9983 C   0  0  0  0  0  0  0  0  0  0  0  0
  -14.1918   -0.3154   10.2148 N   0  0  0  0  0  0  0  0  0  0  0  0
  -15.1361   -0.1996    9.2688 N   0  0  0  0  0  0  0  0  0  0  0  0
  -15.1282    1.0466    8.7049 C   0  0  0  0  0  0  0  0  0  0  0  0
  -16.1299    1.5197    7.7598 C   0  0  0  0  0  0  0  0  0  0  0  0
  -16.5608    2.8526    7.8209 C   0  0  0  0  0  0  0  0  0  0  0  0
  -17.5401    3.3253    6.9450 C   0  0  0  0  0  0  0  0  0  0  0  0
  -18.0863    2.4710    5.9903 C   0  0  0  0  0  0  0  0  0  0  0  0
  -17.6509    1.1493    5.9077 C   0  0  0  0  0  0  0  0  0  0  0  0
  -16.6769    0.6730    6.7872 C   0  0  0  0  0  0  0  0  0  0  0  0
  -14.0898    1.7099    9.1806 N   0  0  0  0  0  0  0  0  0  0  0  0
   -6.7093   -0.1597    7.7678 C   0  0  0  0  0  0  0  0  0  0  0  0
   -5.9984   -1.1278    7.0630 C   0  0  0  0  0  0  0  0  0  0  0  0
   -9.1424   -2.6265    2.5906 H   0  0  0  0  0  0  0  0  0  0  0  0
   -7.5872   -1.9559    1.9861 H   0  0  0  0  0  0  0  0  0  0  0  0
   -7.9031   -3.7063    1.8935 H   0  0  0  0  0  0  0  0  0  0  0  0
   -7.9849   -3.5427    4.4695 H   0  0  0  0  0  0  0  0  0  0  0  0
   -4.8907   -3.2933    5.9614 H   0  0  0  0  0  0  0  0  0  0  0  0
   -6.3768   -4.2295    5.7502 H   0  0  0  0  0  0  0  0  0  0  0  0
   -8.3294   -3.6076    7.0571 H   0  0  0  0  0  0  0  0  0  0  0  0
   -9.5568   -1.9475    8.2898 H   0  0  0  0  0  0  0  0  0  0  0  0
   -8.0815    1.4817    6.3244 H   0  0  0  0  0  0  0  0  0  0  0  0
   -8.3614    1.5098    3.9634 H   0  0  0  0  0  0  0  0  0  0  0  0
   -8.6460    0.2384    2.8973 H   0  0  0  0  0  0  0  0  0  0  0  0
  -12.4180   -0.2301    7.8766 H   0  0  0  0  0  0  0  0  0  0  0  0
  -10.1142    1.5256   10.2546 H   0  0  0  0  0  0  0  0  0  0  0  0
  -11.8598    0.0739   11.1532 H   0  0  0  0  0  0  0  0  0  0  0  0
  -12.1520    1.7905   11.2773 H   0  0  0  0  0  0  0  0  0  0  0  0
  -15.7248   -0.9983    9.0555 H   0  0  0  0  0  0  0  0  0  0  0  0
  -16.1286    3.5273    8.5574 H   0  0  0  0  0  0  0  0  0  0  0  0
  -17.8645    4.3603    7.0001 H   0  0  0  0  0  0  0  0  0  0  0  0
  -18.8301    2.8343    5.2864 H   0  0  0  0  0  0  0  0  0  0  0  0
  -18.0380    0.4991    5.1240 H   0  0  0  0  0  0  0  0  0  0  0  0
  -16.3249   -0.3496    6.6640 H   0  0  0  0  0  0  0  0  0  0  0  0
   -6.2806    0.8334    7.8704 H   0  0  0  0  0  0  0  0  0  0  0  0
   -5.0128   -0.8819    6.6722 H   0  0  0  0  0  0  0  0  0  0  0  0
  1  2  1  0
  2  3  1  0
  3  4  2  0
  3  5  1  0
  5  6  1  0
  6  7  2  0
  7  8  1  0
  8  9  2  0
  9 10  1  0
 10 11  2  0
 11 12  1  0
 12 13  1  0
 13 14  1  0
 13 15  2  0
 15 16  1  0
 16 17  2  0
 17 18  1  0
 18 19  2  0
 19 20  1  0
 20 21  1  0
 21 22  1  0
 22 23  2  0
 23 24  1  0
 24 25  1  0
 25 26  1  0
 26 27  2  0
 27 28  1  0
 28 29  2  0
 29 30  1  0
 30 31  2  0
 25 32  2  0
  9 33  1  0
 33 34  2  0
 34  6  1  0
 19 10  1  0
 32 22  1  0
 17 12  1  0
 31 26  1  0
  1 35  1  0
  1 36  1  0
  1 37  1  0
  2 38  1  0
  5 39  1  0
  5 40  1  0
  7 41  1  0
  8 42  1  0
 11 43  1  0
 14 44  1  0
 14 45  1  0
 18 46  1  0
 20 47  1  0
 21 48  1  0
 21 49  1  0
 24 50  1  0
 27 51  1  0
 28 52  1  0
 29 53  1  0
 30 54  1  0
 31 55  1  0
 33 56  1  0
 34 57  1  0
M  END
>  <Energy>  (709) 
203.55100327799147

>  <compound_id>  (709) 
3677

>  <target_id>  (709) 
1

>  <reference_id>  (709) 
127

>  <inspiration_ids>  (709) 
[127, 74]

>  <energy_score>  (709) 
31.49236410526231

>  <distance_score>  (709) 
2.8047633572458652

>  <path>  (709) 
/opt/xchem-fragalysis-2/maxwin/BulkDock/SCRATCH/505734/C3677-P127/C3677-P127.minimised.mol

>  <scratch_subdir>  (709) 
/opt/xchem-fragalysis-2/maxwin/BulkDock/SCRATCH/505734/C3677-P127

>  <fragmenstein_runtime>  (709) 
19.50019145011902

>  <fragmenstein_outcome>  (709) 
too moved

>  <fragmenstein_mode>  (709) 
expansion

>  <fragmenstein_error>  (709) 


$$$$
C3677-P74
     RDKit          3D

 57 61  0  0  0  0  0  0  0  0999 V2000
   -8.2158   -1.2380    2.3323 C   0  0  0  0  0  0  0  0  0  0  0  0
   -7.5640   -1.9323    3.4032 N   0  0  0  0  0  0  0  0  0  0  0  0
   -7.4035   -3.4496    3.6677 C   0  0  0  0  0  0  0  0  0  0  0  0
   -7.7108   -4.3693    3.0140 O   0  0  0  0  0  0  0  0  0  0  0  0
   -6.6204   -3.6354    4.9783 C   0  0  0  0  0  0  0  0  0  0  0  0
   -7.0910   -2.8686    6.1862 C   0  0  0  0  0  0  0  0  0  0  0  0
   -8.4005   -2.9850    6.6405 C   0  0  0  0  0  0  0  0  0  0  0  0
   -8.8871   -2.1146    7.6139 C   0  0  0  0  0  0  0  0  0  0  0  0
   -8.0927   -1.0891    8.1360 C   0  0  0  0  0  0  0  0  0  0  0  0
   -8.8084    0.2322    8.5529 C   0  0  0  0  0  0  0  0  0  0  0  0
   -8.3406    1.1463    7.6606 C   0  0  0  0  0  0  0  0  0  0  0  0
   -9.0467    1.1121    6.4458 N   0  0  0  0  0  0  0  0  0  0  0  0
   -8.5896    1.2476    5.1554 C   0  0  0  0  0  0  0  0  0  0  0  0
   -7.3670    1.7406    4.8357 N   0  0  0  0  0  0  0  0  0  0  0  0
   -9.5056    0.8017    4.3287 N   0  0  0  0  0  0  0  0  0  0  0  0
  -10.6344    0.4834    5.0467 N   0  0  0  0  0  0  0  0  0  0  0  0
  -10.3418    0.6345    6.3170 C   0  0  0  0  0  0  0  0  0  0  0  0
  -11.0499    0.4357    7.5230 C   0  0  0  0  0  0  0  0  0  0  0  0
  -10.3370    0.3360    8.6697 C   0  0  0  0  0  0  0  0  0  0  0  0
  -10.8991    0.4269    9.9319 N   0  0  0  0  0  0  0  0  0  0  0  0
  -12.0900    1.2209   10.3036 C   0  0  0  0  0  0  0  0  0  0  0  0
  -13.4452    0.7419    9.8927 C   0  0  0  0  0  0  0  0  0  0  0  0
  -14.0491   -0.3202   10.4394 N   0  0  0  0  0  0  0  0  0  0  0  0
  -15.0355   -0.5318    9.5540 N   0  0  0  0  0  0  0  0  0  0  0  0
  -15.1088    0.4607    8.6163 C   0  0  0  0  0  0  0  0  0  0  0  0
  -16.0902    0.5120    7.5396 C   0  0  0  0  0  0  0  0  0  0  0  0
  -16.5550    1.7523    7.0825 C   0  0  0  0  0  0  0  0  0  0  0  0
  -17.4879    1.8253    6.0453 C   0  0  0  0  0  0  0  0  0  0  0  0
  -17.9547    0.6577    5.4448 C   0  0  0  0  0  0  0  0  0  0  0  0
  -17.4871   -0.5813    5.8780 C   0  0  0  0  0  0  0  0  0  0  0  0
  -16.5612   -0.6542    6.9216 C   0  0  0  0  0  0  0  0  0  0  0  0
  -14.1353    1.3178    8.8512 N   0  0  0  0  0  0  0  0  0  0  0  0
   -6.7116   -1.1507    7.8539 C   0  0  0  0  0  0  0  0  0  0  0  0
   -6.2211   -2.0203    6.8718 C   0  0  0  0  0  0  0  0  0  0  0  0
   -7.7765   -0.2445    2.2281 H   0  0  0  0  0  0  0  0  0  0  0  0
   -8.0896   -1.8108    1.4105 H   0  0  0  0  0  0  0  0  0  0  0  0
   -9.2813   -1.1684    2.5598 H   0  0  0  0  0  0  0  0  0  0  0  0
   -7.2615   -1.4121    4.2204 H   0  0  0  0  0  0  0  0  0  0  0  0
   -5.5698   -3.4128    4.7562 H   0  0  0  0  0  0  0  0  0  0  0  0
   -6.6848   -4.6900    5.2426 H   0  0  0  0  0  0  0  0  0  0  0  0
   -9.0857   -3.6964    6.1812 H   0  0  0  0  0  0  0  0  0  0  0  0
   -9.9487   -2.1714    7.8469 H   0  0  0  0  0  0  0  0  0  0  0  0
   -7.2860    1.3323    7.5006 H   0  0  0  0  0  0  0  0  0  0  0  0
   -7.0524    2.5395    5.3773 H   0  0  0  0  0  0  0  0  0  0  0  0
   -7.2784    1.9380    3.8401 H   0  0  0  0  0  0  0  0  0  0  0  0
  -12.1290    0.4628    7.4882 H   0  0  0  0  0  0  0  0  0  0  0  0
  -10.1947    0.4257   10.6630 H   0  0  0  0  0  0  0  0  0  0  0  0
  -11.9479    2.2458    9.9378 H   0  0  0  0  0  0  0  0  0  0  0  0
  -12.0912    1.2999   11.3985 H   0  0  0  0  0  0  0  0  0  0  0  0
  -15.5685   -1.3924    9.6100 H   0  0  0  0  0  0  0  0  0  0  0  0
  -16.1823    2.6705    7.5328 H   0  0  0  0  0  0  0  0  0  0  0  0
  -17.8362    2.7940    5.6972 H   0  0  0  0  0  0  0  0  0  0  0  0
  -18.6653    0.7134    4.6244 H   0  0  0  0  0  0  0  0  0  0  0  0
  -17.8192   -1.4936    5.3873 H   0  0  0  0  0  0  0  0  0  0  0  0
  -16.1815   -1.6316    7.2073 H   0  0  0  0  0  0  0  0  0  0  0  0
   -6.0294   -0.4303    8.2981 H   0  0  0  0  0  0  0  0  0  0  0  0
   -5.1683   -1.9701    6.6030 H   0  0  0  0  0  0  0  0  0  0  0  0
  1  2  1  0
  2  3  1  0
  3  4  2  0
  3  5  1  0
  5  6  1  0
  6  7  2  0
  7  8  1  0
  8  9  2  0
  9 10  1  0
 10 11  2  0
 11 12  1  0
 12 13  1  0
 13 14  1  0
 13 15  2  0
 15 16  1  0
 16 17  2  0
 17 18  1  0
 18 19  2  0
 19 20  1  0
 20 21  1  0
 21 22  1  0
 22 23  2  0
 23 24  1  0
 24 25  1  0
 25 26  1  0
 26 27  2  0
 27 28  1  0
 28 29  2  0
 29 30  1  0
 30 31  2  0
 25 32  2  0
  9 33  1  0
 33 34  2  0
 34  6  1  0
 19 10  1  0
 32 22  1  0
 17 12  1  0
 31 26  1  0
  1 35  1  0
  1 36  1  0
  1 37  1  0
  2 38  1  0
  5 39  1  0
  5 40  1  0
  7 41  1  0
  8 42  1  0
 11 43  1  0
 14 44  1  0
 14 45  1  0
 18 46  1  0
 20 47  1  0
 21 48  1  0
 21 49  1  0
 24 50  1  0
 27 51  1  0
 28 52  1  0
 29 53  1  0
 30 54  1  0
 31 55  1  0
 33 56  1  0
 34 57  1  0
M  END
>  <Energy>  (710) 
199.22843519739462

>  <compound_id>  (710) 
3677

>  <target_id>  (710) 
1

>  <reference_id>  (710) 
74

>  <inspiration_ids>  (710) 
[127, 74]

>  <energy_score>  (710) 
27.16979602466222

>  <distance_score>  (710) 
2.5784821298729415

>  <path>  (710) 
/opt/xchem-fragalysis-2/maxwin/BulkDock/SCRATCH/505734/C3677-P74/C3677-P74.minimised.mol

>  <scratch_subdir>  (710) 
/opt/xchem-fragalysis-2/maxwin/BulkDock/SCRATCH/505734/C3677-P74

>  <fragmenstein_runtime>  (710) 
19.29026460647583

>  <fragmenstein_outcome>  (710) 
too moved

>  <fragmenstein_mode>  (710) 
expansion

>  <fragmenstein_error>  (710) 


$$$$
C3678-P127
     RDKit          3D

 50 54  0  0  0  0  0  0  0  0999 V2000
   -6.4853   -3.0918    3.0652 C   0  0  0  0  0  0  0  0  0  0  0  0
   -5.8754   -2.9799    4.3572 N   0  0  0  0  0  0  0  0  0  0  0  0
   -4.8928   -1.9159    4.9201 C   0  0  0  0  0  0  0  0  0  0  0  0
   -4.3714   -1.0128    4.3925 O   0  0  0  0  0  0  0  0  0  0  0  0
   -4.7156   -2.1991    6.4216 C   0  0  0  0  0  0  0  0  0  0  0  0
   -5.8561   -1.5762    7.1768 C   0  0  0  0  0  0  0  0  0  0  0  0
   -5.7920   -0.2272    7.5357 C   0  0  0  0  0  0  0  0  0  0  0  0
   -6.9646    0.4497    7.8817 C   0  0  0  0  0  0  0  0  0  0  0  0
   -8.2020   -0.2226    7.8970 C   0  0  0  0  0  0  0  0  0  0  0  0
   -9.4229    0.5222    7.4604 C   0  0  0  0  0  0  0  0  0  0  0  0
   -9.4812    0.6399    5.9916 C   0  0  0  0  0  0  0  0  0  0  0  0
  -10.4820    1.2322    5.3407 C   0  0  0  0  0  0  0  0  0  0  0  0
  -11.4757    1.8956    6.0778 C   0  0  0  0  0  0  0  0  0  0  0  0
  -12.4582    2.6733    5.6842 N   0  0  0  0  0  0  0  0  0  0  0  0
  -13.0074    3.2425    6.7997 N   0  0  0  0  0  0  0  0  0  0  0  0
  -12.3406    2.8171    7.8484 C   0  0  0  0  0  0  0  0  0  0  0  0
  -12.4482    3.3331    9.0968 N   0  0  0  0  0  0  0  0  0  0  0  0
  -11.4120    1.8426    7.4617 N   0  0  0  0  0  0  0  0  0  0  0  0
  -10.4665    1.0529    8.1693 C   0  0  0  0  0  0  0  0  0  0  0  0
  -10.6645    0.8428    9.8811 S   0  0  0  0  0  0  0  0  0  0  0  0
  -12.3733    0.4531    9.9709 C   0  0  0  0  0  0  0  0  0  0  0  0
  -13.0745   -0.1993    9.0728 N   0  0  0  0  0  0  0  0  0  0  0  0
  -14.3819   -0.2230    9.5234 N   0  0  0  0  0  0  0  0  0  0  0  0
  -14.3970    0.4065   10.6744 C   0  0  0  0  0  0  0  0  0  0  0  0
  -15.5469    0.5854   11.4962 C   0  0  0  0  0  0  0  0  0  0  0  0
  -16.8657    0.2470   11.2729 C   0  0  0  0  0  0  0  0  0  0  0  0
  -17.6072    0.6294   12.4177 C   0  0  0  0  0  0  0  0  0  0  0  0
  -16.7227    1.1964   13.3082 C   0  0  0  0  0  0  0  0  0  0  0  0
  -15.4766    1.1717   12.7359 N   0  0  0  0  0  0  0  0  0  0  0  0
  -13.1498    0.8522   11.0272 O   0  0  0  0  0  0  0  0  0  0  0  0
   -8.2245   -1.6076    7.7079 C   0  0  0  0  0  0  0  0  0  0  0  0
   -7.0627   -2.2742    7.3264 C   0  0  0  0  0  0  0  0  0  0  0  0
   -6.3054   -2.1807    2.4920 H   0  0  0  0  0  0  0  0  0  0  0  0
   -6.0619   -3.9583    2.5532 H   0  0  0  0  0  0  0  0  0  0  0  0
   -7.5595   -3.2330    3.2019 H   0  0  0  0  0  0  0  0  0  0  0  0
   -6.0708   -3.6722    5.0714 H   0  0  0  0  0  0  0  0  0  0  0  0
   -4.6499   -3.2699    6.6199 H   0  0  0  0  0  0  0  0  0  0  0  0
   -3.7607   -1.7712    6.7491 H   0  0  0  0  0  0  0  0  0  0  0  0
   -4.8714    0.3386    7.4075 H   0  0  0  0  0  0  0  0  0  0  0  0
   -6.9413    1.5341    7.9707 H   0  0  0  0  0  0  0  0  0  0  0  0
   -8.6984    0.1573    5.4080 H   0  0  0  0  0  0  0  0  0  0  0  0
  -10.5214    1.2651    4.2579 H   0  0  0  0  0  0  0  0  0  0  0  0
  -12.9824    4.1980    9.1334 H   0  0  0  0  0  0  0  0  0  0  0  0
  -11.6123    3.3728    9.6717 H   0  0  0  0  0  0  0  0  0  0  0  0
  -17.2442   -0.2239   10.3740 H   0  0  0  0  0  0  0  0  0  0  0  0
  -18.6716    0.5081   12.5696 H   0  0  0  0  0  0  0  0  0  0  0  0
  -16.8721    1.6216   14.2915 H   0  0  0  0  0  0  0  0  0  0  0  0
  -14.6268    1.5259   13.1564 H   0  0  0  0  0  0  0  0  0  0  0  0
   -9.1748   -2.1444    7.6912 H   0  0  0  0  0  0  0  0  0  0  0  0
   -7.1409   -3.3273    7.0645 H   0  0  0  0  0  0  0  0  0  0  0  0
  1  2  1  0
  2  3  1  0
  3  4  2  0
  3  5  1  0
  5  6  1  0
  6  7  2  0
  7  8  1  0
  8  9  2  0
  9 10  1  0
 10 11  1  0
 11 12  2  0
 12 13  1  0
 13 14  2  0
 14 15  1  0
 15 16  2  0
 16 17  1  0
 16 18  1  0
 18 19  1  0
 19 20  1  0
 20 21  1  0
 21 22  2  0
 22 23  1  0
 23 24  2  0
 24 25  1  0
 25 26  2  0
 26 27  1  0
 27 28  2  0
 28 29  1  0
 24 30  1  0
  9 31  1  0
 31 32  2  0
 32  6  1  0
 19 10  2  0
 30 21  1  0
 18 13  1  0
 29 25  1  0
  1 33  1  0
  1 34  1  0
  1 35  1  0
  2 36  1  0
  5 37  1  0
  5 38  1  0
  7 39  1  0
  8 40  1  0
 11 41  1  0
 12 42  1  0
 17 43  1  0
 17 44  1  0
 26 45  1  0
 27 46  1  0
 28 47  1  0
 29 48  1  0
 31 49  1  0
 32 50  1  0
M  END
>  <Energy>  (711) 
102.24328587846666

>  <compound_id>  (711) 
3678

>  <target_id>  (711) 
1

>  <reference_id>  (711) 
127

>  <inspiration_ids>  (711) 
[127, 91]

>  <energy_score>  (711) 
-65.36678091997265

>  <distance_score>  (711) 
2.2993689460856195

>  <path>  (711) 
/opt/xchem-fragalysis-2/maxwin/BulkDock/SCRATCH/505734/C3678-P127/C3678-P127.minimised.mol

>  <scratch_subdir>  (711) 
/opt/xchem-fragalysis-2/maxwin/BulkDock/SCRATCH/505734/C3678-P127

>  <fragmenstein_runtime>  (711) 
28.24967074394226

>  <fragmenstein_outcome>  (711) 
too moved

>  <fragmenstein_mode>  (711) 
expansion

>  <fragmenstein_error>  (711) 


$$$$
C3678-P127
     RDKit          2D

  0  0  0  0  0  0  0  0  0  0999 V2000
M  END
>  <compound_id>  (712) 
3678

>  <target_id>  (712) 
1

>  <reference_id>  (712) 
127

>  <inspiration_ids>  (712) 
[127, 95]

>  <energy_score>  (712) 
nan

>  <distance_score>  (712) 
nan

>  <path>  (712) 
/opt/xchem-fragalysis-2/maxwin/BulkDock/SCRATCH/505734/C3678-P127/C3678-P127.minimised.mol

>  <scratch_subdir>  (712) 
/opt/xchem-fragalysis-2/maxwin/BulkDock/SCRATCH/505734/C3678-P127

>  <fragmenstein_runtime>  (712) 
0.31591057777404785

>  <fragmenstein_outcome>  (712) 
too distant

>  <fragmenstein_mode>  (712) 
expansion

>  <fragmenstein_error>  (712) 
DistanceError: hit1

$$$$
C3679-P127
     RDKit          3D

 54 58  0  0  0  0  0  0  0  0999 V2000
   -5.9604   -3.3192    3.7810 C   0  0  0  0  0  0  0  0  0  0  0  0
   -5.2949   -2.3929    4.6471 N   0  0  0  0  0  0  0  0  0  0  0  0
   -4.5951   -1.0448    4.3327 C   0  0  0  0  0  0  0  0  0  0  0  0
   -4.3868   -0.5211    3.3102 O   0  0  0  0  0  0  0  0  0  0  0  0
   -4.2115   -0.4140    5.6656 C   0  0  0  0  0  0  0  0  0  0  0  0
   -5.4301   -0.0117    6.4391 C   0  0  0  0  0  0  0  0  0  0  0  0
   -5.4936   -0.1900    7.8087 C   0  0  0  0  0  0  0  0  0  0  0  0
   -6.7190   -0.0241    8.4403 C   0  0  0  0  0  0  0  0  0  0  0  0
   -7.8867    0.3015    7.7401 C   0  0  0  0  0  0  0  0  0  0  0  0
   -9.2474   -0.1875    8.2608 C   0  0  0  0  0  0  0  0  0  0  0  0
   -9.3632   -1.6037    7.8178 C   0  0  0  0  0  0  0  0  0  0  0  0
  -10.0903   -1.9530    6.7436 C   0  0  0  0  0  0  0  0  0  0  0  0
  -10.8890   -0.9663    6.1249 C   0  0  0  0  0  0  0  0  0  0  0  0
  -11.5558   -0.9268    4.9939 N   0  0  0  0  0  0  0  0  0  0  0  0
  -12.2470    0.2618    4.9551 N   0  0  0  0  0  0  0  0  0  0  0  0
  -11.9881    0.9235    6.0580 C   0  0  0  0  0  0  0  0  0  0  0  0
  -12.4817    2.1327    6.4129 N   0  0  0  0  0  0  0  0  0  0  0  0
  -11.0962    0.2020    6.8391 N   0  0  0  0  0  0  0  0  0  0  0  0
  -10.4088    0.5209    8.0390 C   0  0  0  0  0  0  0  0  0  0  0  0
  -11.0909    1.2542    9.0507 N   0  0  0  0  0  0  0  0  0  0  0  0
  -12.3213    0.8912    9.5635 C   0  0  0  0  0  0  0  0  0  0  0  0
  -12.6518    0.7246   10.8282 N   0  0  0  0  0  0  0  0  0  0  0  0
  -13.9947    0.4015   10.8956 N   0  0  0  0  0  0  0  0  0  0  0  0
  -14.4831    0.4076    9.6687 C   0  0  0  0  0  0  0  0  0  0  0  0
  -15.8779    0.2520    9.2589 C   0  0  0  0  0  0  0  0  0  0  0  0
  -16.9003    0.4413   10.2002 C   0  0  0  0  0  0  0  0  0  0  0  0
  -18.2446    0.3582    9.8256 C   0  0  0  0  0  0  0  0  0  0  0  0
  -18.5835    0.0739    8.5043 C   0  0  0  0  0  0  0  0  0  0  0  0
  -17.5799   -0.1352    7.5611 C   0  0  0  0  0  0  0  0  0  0  0  0
  -16.2356   -0.0499    7.9360 C   0  0  0  0  0  0  0  0  0  0  0  0
  -13.4500    0.6906    8.8110 N   0  0  0  0  0  0  0  0  0  0  0  0
   -7.7507    0.6471    6.3974 C   0  0  0  0  0  0  0  0  0  0  0  0
   -6.5303    0.5136    5.7602 C   0  0  0  0  0  0  0  0  0  0  0  0
   -6.1774   -2.8386    2.8252 H   0  0  0  0  0  0  0  0  0  0  0  0
   -5.3147   -4.1847    3.6268 H   0  0  0  0  0  0  0  0  0  0  0  0
   -6.8904   -3.6217    4.2628 H   0  0  0  0  0  0  0  0  0  0  0  0
   -5.3792   -2.5050    5.6524 H   0  0  0  0  0  0  0  0  0  0  0  0
   -3.6194    0.4757    5.4679 H   0  0  0  0  0  0  0  0  0  0  0  0
   -3.5878   -1.1208    6.2236 H   0  0  0  0  0  0  0  0  0  0  0  0
   -4.6327   -0.5299    8.3784 H   0  0  0  0  0  0  0  0  0  0  0  0
   -6.7768   -0.2267    9.4926 H   0  0  0  0  0  0  0  0  0  0  0  0
   -8.7866   -2.3516    8.3507 H   0  0  0  0  0  0  0  0  0  0  0  0
  -10.1378   -2.9745    6.3838 H   0  0  0  0  0  0  0  0  0  0  0  0
  -11.9225    2.7082    7.0414 H   0  0  0  0  0  0  0  0  0  0  0  0
  -12.8759    2.6694    5.6425 H   0  0  0  0  0  0  0  0  0  0  0  0
  -10.4435    1.3747    9.8350 H   0  0  0  0  0  0  0  0  0  0  0  0
  -16.6484    0.6721   11.2339 H   0  0  0  0  0  0  0  0  0  0  0  0
  -19.0220    0.5227   10.5663 H   0  0  0  0  0  0  0  0  0  0  0  0
  -19.6271    0.0180    8.2077 H   0  0  0  0  0  0  0  0  0  0  0  0
  -17.8319   -0.3588    6.5266 H   0  0  0  0  0  0  0  0  0  0  0  0
  -15.4802   -0.2396    7.1751 H   0  0  0  0  0  0  0  0  0  0  0  0
  -13.5441    0.8571    7.8229 H   0  0  0  0  0  0  0  0  0  0  0  0
   -8.6101    0.9178    5.7895 H   0  0  0  0  0  0  0  0  0  0  0  0
   -6.4850    0.7297    4.6927 H   0  0  0  0  0  0  0  0  0  0  0  0
  1  2  1  0
  2  3  1  0
  3  4  2  0
  3  5  1  0
  5  6  1  0
  6  7  2  0
  7  8  1  0
  8  9  2  0
  9 10  1  0
 10 11  1  0
 11 12  2  0
 12 13  1  0
 13 14  2  0
 14 15  1  0
 15 16  2  0
 16 17  1  0
 16 18  1  0
 18 19  1  0
 19 20  1  0
 20 21  1  0
 21 22  2  0
 22 23  1  0
 23 24  2  0
 24 25  1  0
 25 26  2  0
 26 27  1  0
 27 28  2  0
 28 29  1  0
 29 30  2  0
 24 31  1  0
  9 32  1  0
 32 33  2  0
 33  6  1  0
 19 10  2  0
 31 21  1  0
 18 13  1  0
 30 25  1  0
  1 34  1  0
  1 35  1  0
  1 36  1  0
  2 37  1  0
  5 38  1  0
  5 39  1  0
  7 40  1  0
  8 41  1  0
 11 42  1  0
 12 43  1  0
 17 44  1  0
 17 45  1  0
 20 46  1  0
 26 47  1  0
 27 48  1  0
 28 49  1  0
 29 50  1  0
 30 51  1  0
 31 52  1  0
 32 53  1  0
 33 54  1  0
M  END
>  <Energy>  (713) 
157.2788706447179

>  <compound_id>  (713) 
3679

>  <target_id>  (713) 
1

>  <reference_id>  (713) 
127

>  <inspiration_ids>  (713) 
[127, 99]

>  <energy_score>  (713) 
-4.918239102650887

>  <distance_score>  (713) 
3.155591520742123

>  <path>  (713) 
/opt/xchem-fragalysis-2/maxwin/BulkDock/SCRATCH/505734/C3679-P127/C3679-P127.minimised.mol

>  <scratch_subdir>  (713) 
/opt/xchem-fragalysis-2/maxwin/BulkDock/SCRATCH/505734/C3679-P127

>  <fragmenstein_runtime>  (713) 
80.9904727935791

>  <fragmenstein_outcome>  (713) 
too moved

>  <fragmenstein_mode>  (713) 
expansion

>  <fragmenstein_error>  (713) 


$$$$
C3679-P99
     RDKit          3D

 54 58  0  0  0  0  0  0  0  0999 V2000
   -6.9788   -3.9085    5.0914 C   0  0  0  0  0  0  0  0  0  0  0  0
   -6.1097   -2.8885    5.5814 N   0  0  0  0  0  0  0  0  0  0  0  0
   -4.9695   -2.1103    4.8728 C   0  0  0  0  0  0  0  0  0  0  0  0
   -4.6182   -2.1304    3.7589 O   0  0  0  0  0  0  0  0  0  0  0  0
   -4.3191   -1.1874    5.9189 C   0  0  0  0  0  0  0  0  0  0  0  0
   -5.3460   -0.3875    6.6862 C   0  0  0  0  0  0  0  0  0  0  0  0
   -6.2618    0.4057    5.9970 C   0  0  0  0  0  0  0  0  0  0  0  0
   -7.4687    0.7576    6.5975 C   0  0  0  0  0  0  0  0  0  0  0  0
   -7.7661    0.3326    7.8941 C   0  0  0  0  0  0  0  0  0  0  0  0
   -9.2052   -0.0155    8.3194 C   0  0  0  0  0  0  0  0  0  0  0  0
   -9.4862   -1.3953    7.8290 C   0  0  0  0  0  0  0  0  0  0  0  0
  -10.2215   -1.6182    6.7257 C   0  0  0  0  0  0  0  0  0  0  0  0
  -10.8694   -0.5179    6.1171 C   0  0  0  0  0  0  0  0  0  0  0  0
  -11.5370   -0.3645    4.9953 N   0  0  0  0  0  0  0  0  0  0  0  0
  -12.0996    0.8925    5.0061 N   0  0  0  0  0  0  0  0  0  0  0  0
  -11.7691    1.4811    6.1318 C   0  0  0  0  0  0  0  0  0  0  0  0
  -12.1590    2.6997    6.5609 N   0  0  0  0  0  0  0  0  0  0  0  0
  -10.9435    0.6435    6.8664 N   0  0  0  0  0  0  0  0  0  0  0  0
  -10.2742    0.8220    8.1009 C   0  0  0  0  0  0  0  0  0  0  0  0
  -11.0111    1.4103    9.1673 N   0  0  0  0  0  0  0  0  0  0  0  0
  -12.2567    1.0060    9.6041 C   0  0  0  0  0  0  0  0  0  0  0  0
  -12.6620    0.8925   10.8527 N   0  0  0  0  0  0  0  0  0  0  0  0
  -13.9752    0.4650   10.8558 N   0  0  0  0  0  0  0  0  0  0  0  0
  -14.3729    0.3407    9.6033 C   0  0  0  0  0  0  0  0  0  0  0  0
  -15.7095   -0.0041    9.1215 C   0  0  0  0  0  0  0  0  0  0  0  0
  -16.8060    0.1077    9.9891 C   0  0  0  0  0  0  0  0  0  0  0  0
  -18.1009   -0.1840    9.5514 C   0  0  0  0  0  0  0  0  0  0  0  0
  -18.3147   -0.6066    8.2416 C   0  0  0  0  0  0  0  0  0  0  0  0
  -17.2349   -0.7370    7.3715 C   0  0  0  0  0  0  0  0  0  0  0  0
  -15.9404   -0.4352    7.8064 C   0  0  0  0  0  0  0  0  0  0  0  0
  -13.3111    0.6651    8.7950 N   0  0  0  0  0  0  0  0  0  0  0  0
   -6.7245   -0.2239    8.6389 C   0  0  0  0  0  0  0  0  0  0  0  0
   -5.5141   -0.5800    8.0501 C   0  0  0  0  0  0  0  0  0  0  0  0
   -6.6066   -4.2699    4.1309 H   0  0  0  0  0  0  0  0  0  0  0  0
   -7.0130   -4.7113    5.8293 H   0  0  0  0  0  0  0  0  0  0  0  0
   -7.9762   -3.4805    4.9692 H   0  0  0  0  0  0  0  0  0  0  0  0
   -6.0864   -2.6929    6.5749 H   0  0  0  0  0  0  0  0  0  0  0  0
   -3.6426   -0.5190    5.3850 H   0  0  0  0  0  0  0  0  0  0  0  0
   -3.7120   -1.8051    6.5899 H   0  0  0  0  0  0  0  0  0  0  0  0
   -6.1291    0.6065    4.9341 H   0  0  0  0  0  0  0  0  0  0  0  0
   -8.2352    1.2057    5.9688 H   0  0  0  0  0  0  0  0  0  0  0  0
   -9.0269   -2.2244    8.3594 H   0  0  0  0  0  0  0  0  0  0  0  0
  -10.3919   -2.6149    6.3320 H   0  0  0  0  0  0  0  0  0  0  0  0
  -12.5020    3.3364    5.8462 H   0  0  0  0  0  0  0  0  0  0  0  0
  -11.6246    3.1642    7.2925 H   0  0  0  0  0  0  0  0  0  0  0  0
  -10.3960    1.4889    9.9817 H   0  0  0  0  0  0  0  0  0  0  0  0
  -16.6520    0.4340   11.0166 H   0  0  0  0  0  0  0  0  0  0  0  0
  -18.9377   -0.0791   10.2365 H   0  0  0  0  0  0  0  0  0  0  0  0
  -19.3204   -0.8318    7.8976 H   0  0  0  0  0  0  0  0  0  0  0  0
  -17.3906   -1.0740    6.3490 H   0  0  0  0  0  0  0  0  0  0  0  0
  -15.1227   -0.5640    7.0996 H   0  0  0  0  0  0  0  0  0  0  0  0
  -13.3481    0.7247    7.7926 H   0  0  0  0  0  0  0  0  0  0  0  0
   -6.9094   -0.4651    9.6767 H   0  0  0  0  0  0  0  0  0  0  0  0
   -4.7650   -1.1077    8.6338 H   0  0  0  0  0  0  0  0  0  0  0  0
  1  2  1  0
  2  3  1  0
  3  4  2  0
  3  5  1  0
  5  6  1  0
  6  7  2  0
  7  8  1  0
  8  9  2  0
  9 10  1  0
 10 11  1  0
 11 12  2  0
 12 13  1  0
 13 14  2  0
 14 15  1  0
 15 16  2  0
 16 17  1  0
 16 18  1  0
 18 19  1  0
 19 20  1  0
 20 21  1  0
 21 22  2  0
 22 23  1  0
 23 24  2  0
 24 25  1  0
 25 26  2  0
 26 27  1  0
 27 28  2  0
 28 29  1  0
 29 30  2  0
 24 31  1  0
  9 32  1  0
 32 33  2  0
 33  6  1  0
 19 10  2  0
 31 21  1  0
 18 13  1  0
 30 25  1  0
  1 34  1  0
  1 35  1  0
  1 36  1  0
  2 37  1  0
  5 38  1  0
  5 39  1  0
  7 40  1  0
  8 41  1  0
 11 42  1  0
 12 43  1  0
 17 44  1  0
 17 45  1  0
 20 46  1  0
 26 47  1  0
 27 48  1  0
 28 49  1  0
 29 50  1  0
 30 51  1  0
 31 52  1  0
 32 53  1  0
 33 54  1  0
M  END
>  <Energy>  (714) 
164.3593518343377

>  <compound_id>  (714) 
3679

>  <target_id>  (714) 
1

>  <reference_id>  (714) 
99

>  <inspiration_ids>  (714) 
[127, 99]

>  <energy_score>  (714) 
2.1622420869669554

>  <distance_score>  (714) 
2.8396285043396827

>  <path>  (714) 
/opt/xchem-fragalysis-2/maxwin/BulkDock/SCRATCH/505734/C3679-P99/C3679-P99.minimised.mol

>  <scratch_subdir>  (714) 
/opt/xchem-fragalysis-2/maxwin/BulkDock/SCRATCH/505734/C3679-P99

>  <fragmenstein_runtime>  (714) 
78.83263182640076

>  <fragmenstein_outcome>  (714) 
too moved

>  <fragmenstein_mode>  (714) 
expansion

>  <fragmenstein_error>  (714) 


$$$$
C3680-P127
     RDKit          3D

 63 67  0  0  0  0  0  0  0  0999 V2000
   -3.2783   -0.5778    8.1732 C   0  0  0  0  0  0  0  0  0  0  0  0
   -4.1460   -1.3096    7.3190 N   0  0  0  0  0  0  0  0  0  0  0  0
   -4.3266   -1.2532    5.7844 C   0  0  0  0  0  0  0  0  0  0  0  0
   -3.7384   -0.6537    4.9763 O   0  0  0  0  0  0  0  0  0  0  0  0
   -5.5029   -2.1637    5.4677 C   0  0  0  0  0  0  0  0  0  0  0  0
   -6.7920   -1.6613    6.0654 C   0  0  0  0  0  0  0  0  0  0  0  0
   -7.7560   -2.5596    6.5216 C   0  0  0  0  0  0  0  0  0  0  0  0
   -9.0117   -2.0961    6.9416 C   0  0  0  0  0  0  0  0  0  0  0  0
   -9.3407   -0.7266    6.9129 C   0  0  0  0  0  0  0  0  0  0  0  0
  -10.7953   -0.2557    7.2058 C   0  0  0  0  0  0  0  0  0  0  0  0
  -11.5782   -0.3413    5.8746 C   0  0  0  0  0  0  0  0  0  0  0  0
  -11.2208    0.7749    4.9001 C   0  0  0  0  0  0  0  0  0  0  0  0
  -11.0733    2.0860    5.5761 C   0  0  0  0  0  0  0  0  0  0  0  0
  -10.9443    3.2562    4.9917 N   0  0  0  0  0  0  0  0  0  0  0  0
  -10.8592    4.2102    5.9738 N   0  0  0  0  0  0  0  0  0  0  0  0
  -10.9596    3.6132    7.1372 C   0  0  0  0  0  0  0  0  0  0  0  0
  -11.0317    4.2062    8.3502 N   0  0  0  0  0  0  0  0  0  0  0  0
  -10.9891    2.2510    6.9393 N   0  0  0  0  0  0  0  0  0  0  0  0
  -11.0181    1.1605    7.9273 C   0  0  0  0  0  0  0  0  0  0  0  0
   -9.9573    1.4000    9.0264 C   0  0  0  0  0  0  0  0  0  0  0  0
  -10.2033    0.7492   10.3688 C   0  0  0  0  0  0  0  0  0  0  0  0
  -11.2274   -0.3680   10.4503 C   0  0  0  0  0  0  0  0  0  0  0  0
  -12.6514   -0.0048   10.0510 C   0  0  0  0  0  0  0  0  0  0  0  0
  -13.5829    0.4232   11.1697 C   0  0  0  0  0  0  0  0  0  0  0  0
  -13.1401    1.1466   12.2896 C   0  0  0  0  0  0  0  0  0  0  0  0
  -14.0393    1.6183   13.2323 C   0  0  0  0  0  0  0  0  0  0  0  0
  -15.3910    1.3520   13.0689 C   0  0  0  0  0  0  0  0  0  0  0  0
  -15.8466    0.6112   11.9802 C   0  0  0  0  0  0  0  0  0  0  0  0
  -14.9501    0.1508   11.0308 C   0  0  0  0  0  0  0  0  0  0  0  0
  -12.6951    1.2406    8.7734 S   0  0  0  0  0  0  0  0  0  0  0  0
  -12.8003    2.5337    9.4373 O   0  0  0  0  0  0  0  0  0  0  0  0
  -13.7318    0.8426    7.8403 O   0  0  0  0  0  0  0  0  0  0  0  0
   -8.3438    0.1583    6.4853 C   0  0  0  0  0  0  0  0  0  0  0  0
   -7.0921   -0.2969    6.0744 C   0  0  0  0  0  0  0  0  0  0  0  0
   -3.8322   -0.3110    9.0725 H   0  0  0  0  0  0  0  0  0  0  0  0
   -2.9419    0.3199    7.6541 H   0  0  0  0  0  0  0  0  0  0  0  0
   -2.4327   -1.2172    8.4203 H   0  0  0  0  0  0  0  0  0  0  0  0
   -4.7781   -1.9986    7.7091 H   0  0  0  0  0  0  0  0  0  0  0  0
   -5.2653   -3.1656    5.8381 H   0  0  0  0  0  0  0  0  0  0  0  0
   -5.6129   -2.2330    4.3793 H   0  0  0  0  0  0  0  0  0  0  0  0
   -7.5731   -3.6330    6.5040 H   0  0  0  0  0  0  0  0  0  0  0  0
   -9.7616   -2.8274    7.2432 H   0  0  0  0  0  0  0  0  0  0  0  0
  -11.2345   -1.0272    7.8394 H   0  0  0  0  0  0  0  0  0  0  0  0
  -11.4157   -1.3099    5.3836 H   0  0  0  0  0  0  0  0  0  0  0  0
  -12.6530   -0.3039    6.0728 H   0  0  0  0  0  0  0  0  0  0  0  0
  -10.2870    0.5368    4.3783 H   0  0  0  0  0  0  0  0  0  0  0  0
  -11.9963    0.8441    4.1285 H   0  0  0  0  0  0  0  0  0  0  0  0
  -11.7701    3.8572    8.9758 H   0  0  0  0  0  0  0  0  0  0  0  0
  -11.1402    5.2164    8.2790 H   0  0  0  0  0  0  0  0  0  0  0  0
   -9.8156    2.4596    9.2468 H   0  0  0  0  0  0  0  0  0  0  0  0
   -8.9576    1.1172    8.6917 H   0  0  0  0  0  0  0  0  0  0  0  0
  -10.4527    1.5400   11.0813 H   0  0  0  0  0  0  0  0  0  0  0  0
   -9.2349    0.3393   10.6638 H   0  0  0  0  0  0  0  0  0  0  0  0
  -11.2505   -0.8303   11.4408 H   0  0  0  0  0  0  0  0  0  0  0  0
  -10.8406   -1.1562    9.8102 H   0  0  0  0  0  0  0  0  0  0  0  0
  -13.0798   -0.8889    9.5666 H   0  0  0  0  0  0  0  0  0  0  0  0
  -12.0961    1.4008   12.4268 H   0  0  0  0  0  0  0  0  0  0  0  0
  -13.6891    2.2123   14.0731 H   0  0  0  0  0  0  0  0  0  0  0  0
  -16.1065    1.7362   13.7908 H   0  0  0  0  0  0  0  0  0  0  0  0
  -16.9092    0.4145   11.8618 H   0  0  0  0  0  0  0  0  0  0  0  0
  -15.3272   -0.3926   10.1647 H   0  0  0  0  0  0  0  0  0  0  0  0
   -8.5218    1.2283    6.4028 H   0  0  0  0  0  0  0  0  0  0  0  0
   -6.3784    0.4357    5.6982 H   0  0  0  0  0  0  0  0  0  0  0  0
  1  2  1  0
  2  3  1  0
  3  4  2  0
  3  5  1  0
  5  6  1  0
  6  7  2  0
  7  8  1  0
  8  9  2  0
  9 10  1  0
 10 11  1  0
 11 12  1  0
 12 13  1  0
 13 14  2  0
 14 15  1  0
 15 16  2  0
 16 17  1  0
 16 18  1  0
 18 19  1  0
 19 20  1  0
 20 21  1  0
 21 22  1  0
 22 23  1  0
 23 24  1  0
 24 25  2  0
 25 26  1  0
 26 27  2  0
 27 28  1  0
 28 29  2  0
 23 30  1  0
 30 31  2  0
 30 32  2  0
  9 33  1  0
 33 34  2  0
 34  6  1  0
 19 10  1  0
 29 24  1  0
 18 13  1  0
 30 19  1  0
  1 35  1  0
  1 36  1  0
  1 37  1  0
  2 38  1  0
  5 39  1  0
  5 40  1  0
  7 41  1  0
  8 42  1  0
 10 43  1  0
 11 44  1  0
 11 45  1  0
 12 46  1  0
 12 47  1  0
 17 48  1  0
 17 49  1  0
 20 50  1  0
 20 51  1  0
 21 52  1  0
 21 53  1  0
 22 54  1  0
 22 55  1  0
 23 56  1  0
 25 57  1  0
 26 58  1  0
 27 59  1  0
 28 60  1  0
 29 61  1  0
 33 62  1  0
 34 63  1  0
M  END
>  <Energy>  (715) 
74.384509287238956

>  <compound_id>  (715) 
3680

>  <target_id>  (715) 
1

>  <reference_id>  (715) 
127

>  <inspiration_ids>  (715) 
[127, 100]

>  <energy_score>  (715) 
-67.73627891114558

>  <distance_score>  (715) 
2.405181293384262

>  <path>  (715) 
/opt/xchem-fragalysis-2/maxwin/BulkDock/SCRATCH/505734/C3680-P127/C3680-P127.minimised.mol

>  <scratch_subdir>  (715) 
/opt/xchem-fragalysis-2/maxwin/BulkDock/SCRATCH/505734/C3680-P127

>  <fragmenstein_runtime>  (715) 
14.662535190582275

>  <fragmenstein_outcome>  (715) 
too moved

>  <fragmenstein_mode>  (715) 
expansion

>  <fragmenstein_error>  (715) 


$$$$
C3680-P100
     RDKit          3D

 63 67  0  0  0  0  0  0  0  0999 V2000
   -5.5766   -0.5720    8.1696 C   0  0  0  0  0  0  0  0  0  0  0  0
   -6.4773   -0.9407    7.1286 N   0  0  0  0  0  0  0  0  0  0  0  0
   -6.8627   -2.2333    6.6283 C   0  0  0  0  0  0  0  0  0  0  0  0
   -6.4664   -3.3283    6.9054 O   0  0  0  0  0  0  0  0  0  0  0  0
   -7.8806   -2.0652    5.4953 C   0  0  0  0  0  0  0  0  0  0  0  0
   -9.1315   -1.3771    5.9580 C   0  0  0  0  0  0  0  0  0  0  0  0
  -10.1153   -2.1127    6.6118 C   0  0  0  0  0  0  0  0  0  0  0  0
  -11.2660   -1.4832    7.0784 C   0  0  0  0  0  0  0  0  0  0  0  0
  -11.4440   -0.0998    6.9437 C   0  0  0  0  0  0  0  0  0  0  0  0
  -12.7664    0.5240    7.4058 C   0  0  0  0  0  0  0  0  0  0  0  0
  -13.4675    1.1447    6.1654 C   0  0  0  0  0  0  0  0  0  0  0  0
  -13.3770    2.6629    6.0122 C   0  0  0  0  0  0  0  0  0  0  0  0
  -12.4260    3.3012    6.9495 C   0  0  0  0  0  0  0  0  0  0  0  0
  -11.7539    4.4102    6.7430 N   0  0  0  0  0  0  0  0  0  0  0  0
  -10.9203    4.5946    7.8091 N   0  0  0  0  0  0  0  0  0  0  0  0
  -11.0697    3.5830    8.6287 C   0  0  0  0  0  0  0  0  0  0  0  0
  -10.3396    3.3804    9.7457 N   0  0  0  0  0  0  0  0  0  0  0  0
  -12.0644    2.7602    8.1688 N   0  0  0  0  0  0  0  0  0  0  0  0
  -12.6506    1.4988    8.6699 C   0  0  0  0  0  0  0  0  0  0  0  0
  -11.6885    0.6207   10.0091 C   0  0  0  0  0  0  0  0  0  0  0  0
  -12.1082    0.4461   11.8036 C   0  0  0  0  0  0  0  0  0  0  0  0
  -13.8094    0.9040   12.4930 C   0  0  0  0  0  0  0  0  0  0  0  0
  -15.1827    1.8764   11.2109 C   0  0  0  0  0  0  0  0  0  0  0  0
  -16.1007    1.1413   12.0416 C   0  0  0  0  0  0  0  0  0  0  0  0
  -15.4112    2.5268   12.8579 C   0  0  0  0  0  0  0  0  0  0  0  0
  -13.9529    3.1585   12.2616 C   0  0  0  0  0  0  0  0  0  0  0  0
  -13.2507    2.2075   11.0205 C   0  0  0  0  0  0  0  0  0  0  0  0
  -13.9562    0.5100   10.5297 C   0  0  0  0  0  0  0  0  0  0  0  0
  -15.4479    0.0771   11.0722 C   0  0  0  0  0  0  0  0  0  0  0  0
  -14.8025    1.9676    9.0425 S   0  0  0  0  0  0  0  0  0  0  0  0
  -15.0239    3.3517    8.6511 O   0  0  0  0  0  0  0  0  0  0  0  0
  -15.6235    0.9685    8.3653 O   0  0  0  0  0  0  0  0  0  0  0  0
  -10.4419    0.6310    6.2905 C   0  0  0  0  0  0  0  0  0  0  0  0
   -9.3083   -0.0023    5.7856 C   0  0  0  0  0  0  0  0  0  0  0  0
   -5.1511    0.4020    7.9296 H   0  0  0  0  0  0  0  0  0  0  0  0
   -4.7877   -1.3185    8.2639 H   0  0  0  0  0  0  0  0  0  0  0  0
   -6.1531   -0.5056    9.0918 H   0  0  0  0  0  0  0  0  0  0  0  0
   -6.9665   -0.2263    6.6073 H   0  0  0  0  0  0  0  0  0  0  0  0
   -8.1271   -3.0548    5.0905 H   0  0  0  0  0  0  0  0  0  0  0  0
   -7.4190   -1.5049    4.6743 H   0  0  0  0  0  0  0  0  0  0  0  0
  -10.0050   -3.1869    6.7484 H   0  0  0  0  0  0  0  0  0  0  0  0
  -12.0328   -2.1018    7.5388 H   0  0  0  0  0  0  0  0  0  0  0  0
  -13.4053   -0.3149    7.7111 H   0  0  0  0  0  0  0  0  0  0  0  0
  -13.1081    0.6737    5.2394 H   0  0  0  0  0  0  0  0  0  0  0  0
  -14.5309    0.8766    6.1774 H   0  0  0  0  0  0  0  0  0  0  0  0
  -13.0769    2.8973    4.9833 H   0  0  0  0  0  0  0  0  0  0  0  0
  -14.3687    3.1110    6.1379 H   0  0  0  0  0  0  0  0  0  0  0  0
   -9.8440    4.2426    9.9869 H   0  0  0  0  0  0  0  0  0  0  0  0
   -9.5777    2.7165    9.6006 H   0  0  0  0  0  0  0  0  0  0  0  0
  -10.6550    0.9751    9.9797 H   0  0  0  0  0  0  0  0  0  0  0  0
  -11.5984   -0.4258    9.6791 H   0  0  0  0  0  0  0  0  0  0  0  0
  -11.4058    1.0871   12.3518 H   0  0  0  0  0  0  0  0  0  0  0  0
  -11.9321   -0.6012   12.0762 H   0  0  0  0  0  0  0  0  0  0  0  0
  -13.5856    1.3872   13.4710 H   0  0  0  0  0  0  0  0  0  0  0  0
  -14.2075   -0.0612   12.8697 H   0  0  0  0  0  0  0  0  0  0  0  0
  -15.6113    2.9385   11.0491 H   0  0  0  0  0  0  0  0  0  0  0  0
  -15.9356    2.9972   13.6845 H   0  0  0  0  0  0  0  0  0  0  0  0
  -13.4824    4.0490   12.6628 H   0  0  0  0  0  0  0  0  0  0  0  0
  -12.2827    2.6169   10.7470 H   0  0  0  0  0  0  0  0  0  0  0  0
  -13.5564   -0.2935    9.9054 H   0  0  0  0  0  0  0  0  0  0  0  0
  -15.8946   -0.8831   10.8447 H   0  0  0  0  0  0  0  0  0  0  0  0
  -10.5337    1.6968    6.1042 H   0  0  0  0  0  0  0  0  0  0  0  0
   -8.5751    0.5906    5.2429 H   0  0  0  0  0  0  0  0  0  0  0  0
  1  2  1  0
  2  3  1  0
  3  4  2  0
  3  5  1  0
  5  6  1  0
  6  7  2  0
  7  8  1  0
  8  9  2  0
  9 10  1  0
 10 11  1  0
 11 12  1  0
 12 13  1  0
 13 14  2  0
 14 15  1  0
 15 16  2  0
 16 17  1  0
 16 18  1  0
 18 19  1  0
 19 20  1  0
 20 21  1  0
 21 22  1  0
 22 23  1  0
 23 24  1  0
 24 25  2  0
 25 26  1  0
 26 27  2  0
 27 28  1  0
 28 29  2  0
 23 30  1  0
 30 31  2  0
 30 32  2  0
  9 33  1  0
 33 34  2  0
 34  6  1  0
 19 10  1  0
 29 24  1  0
 18 13  1  0
 30 19  1  0
  1 35  1  0
  1 36  1  0
  1 37  1  0
  2 38  1  0
  5 39  1  0
  5 40  1  0
  7 41  1  0
  8 42  1  0
 10 43  1  0
 11 44  1  0
 11 45  1  0
 12 46  1  0
 12 47  1  0
 17 48  1  0
 17 49  1  0
 20 50  1  0
 20 51  1  0
 21 52  1  0
 21 53  1  0
 22 54  1  0
 22 55  1  0
 23 56  1  0
 25 57  1  0
 26 58  1  0
 27 59  1  0
 28 60  1  0
 29 61  1  0
 33 62  1  0
 34 63  1  0
M  END
>  <Energy>  (716) 
1106.4001348696813

>  <compound_id>  (716) 
3680

>  <target_id>  (716) 
1

>  <reference_id>  (716) 
100

>  <inspiration_ids>  (716) 
[127, 100]

>  <energy_score>  (716) 
956.910906694891

>  <distance_score>  (716) 
3.0769181644861803

>  <path>  (716) 
/opt/xchem-fragalysis-2/maxwin/BulkDock/SCRATCH/505734/C3680-P100/C3680-P100.minimised.mol

>  <scratch_subdir>  (716) 
/opt/xchem-fragalysis-2/maxwin/BulkDock/SCRATCH/505734/C3680-P100

>  <fragmenstein_runtime>  (716) 
18.034335374832153

>  <fragmenstein_outcome>  (716) 
too moved

>  <fragmenstein_mode>  (716) 
expansion

>  <fragmenstein_error>  (716) 


$$$$
C3680-P127
     RDKit          3D

 63 67  0  0  0  0  0  0  0  0999 V2000
   -4.3031    3.0548    7.4418 C   0  0  0  0  0  0  0  0  0  0  0  0
   -4.3502    1.7122    6.9246 N   0  0  0  0  0  0  0  0  0  0  0  0
   -3.8253    0.3764    7.5306 C   0  0  0  0  0  0  0  0  0  0  0  0
   -3.2094    0.1776    8.5016 O   0  0  0  0  0  0  0  0  0  0  0  0
   -4.3428   -0.7898    6.6831 C   0  0  0  0  0  0  0  0  0  0  0  0
   -5.8335   -0.7454    6.4670 C   0  0  0  0  0  0  0  0  0  0  0  0
   -6.4250   -1.4801    5.4422 C   0  0  0  0  0  0  0  0  0  0  0  0
   -7.7507   -1.2179    5.0821 C   0  0  0  0  0  0  0  0  0  0  0  0
   -8.4759   -0.1783    5.6993 C   0  0  0  0  0  0  0  0  0  0  0  0
   -9.8940    0.2503    5.3088 C   0  0  0  0  0  0  0  0  0  0  0  0
  -10.0524    0.1666    3.7714 C   0  0  0  0  0  0  0  0  0  0  0  0
  -11.3795    0.7764    3.3586 C   0  0  0  0  0  0  0  0  0  0  0  0
  -12.4556    0.0359    4.0367 C   0  0  0  0  0  0  0  0  0  0  0  0
  -13.6853   -0.1337    3.6115 N   0  0  0  0  0  0  0  0  0  0  0  0
  -14.3249   -0.9321    4.5197 N   0  0  0  0  0  0  0  0  0  0  0  0
  -13.4684   -1.2479    5.4616 C   0  0  0  0  0  0  0  0  0  0  0  0
  -13.6645   -2.1189    6.4704 N   0  0  0  0  0  0  0  0  0  0  0  0
  -12.2717   -0.6156    5.2377 N   0  0  0  0  0  0  0  0  0  0  0  0
  -11.1021   -0.4292    6.1315 C   0  0  0  0  0  0  0  0  0  0  0  0
  -10.6156   -1.7559    6.7985 C   0  0  0  0  0  0  0  0  0  0  0  0
   -9.7737   -1.6477    8.0945 C   0  0  0  0  0  0  0  0  0  0  0  0
  -10.3559   -0.7918    9.2421 C   0  0  0  0  0  0  0  0  0  0  0  0
  -11.7633   -0.2629    8.9540 C   0  0  0  0  0  0  0  0  0  0  0  0
  -12.4412    0.4708   10.1130 C   0  0  0  0  0  0  0  0  0  0  0  0
  -13.8036    0.2111   10.3569 C   0  0  0  0  0  0  0  0  0  0  0  0
  -14.4713    0.7667   11.4514 C   0  0  0  0  0  0  0  0  0  0  0  0
  -13.7944    1.6145   12.3190 C   0  0  0  0  0  0  0  0  0  0  0  0
  -12.4580    1.9206   12.0750 C   0  0  0  0  0  0  0  0  0  0  0  0
  -11.7862    1.3577   10.9788 C   0  0  0  0  0  0  0  0  0  0  0  0
  -11.6523    0.7754    7.5082 S   0  0  0  0  0  0  0  0  0  0  0  0
  -12.9691    1.3048    7.1976 O   0  0  0  0  0  0  0  0  0  0  0  0
  -10.5803    1.7236    7.7666 O   0  0  0  0  0  0  0  0  0  0  0  0
   -7.8794    0.4933    6.7653 C   0  0  0  0  0  0  0  0  0  0  0  0
   -6.6292    0.1245    7.2163 C   0  0  0  0  0  0  0  0  0  0  0  0
   -5.2252    3.2435    7.9933 H   0  0  0  0  0  0  0  0  0  0  0  0
   -3.4439    3.1692    8.0926 H   0  0  0  0  0  0  0  0  0  0  0  0
   -4.2716    3.7741    6.6249 H   0  0  0  0  0  0  0  0  0  0  0  0
   -4.7810    1.5303    6.0232 H   0  0  0  0  0  0  0  0  0  0  0  0
   -3.8168   -0.7529    5.7220 H   0  0  0  0  0  0  0  0  0  0  0  0
   -4.0813   -1.7294    7.1834 H   0  0  0  0  0  0  0  0  0  0  0  0
   -5.8554   -2.2216    4.8873 H   0  0  0  0  0  0  0  0  0  0  0  0
   -8.1886   -1.8056    4.2792 H   0  0  0  0  0  0  0  0  0  0  0  0
   -9.9367    1.3328    5.4956 H   0  0  0  0  0  0  0  0  0  0  0  0
   -9.2378    0.7055    3.2709 H   0  0  0  0  0  0  0  0  0  0  0  0
  -10.0074   -0.8757    3.4300 H   0  0  0  0  0  0  0  0  0  0  0  0
  -11.4253    1.8372    3.6286 H   0  0  0  0  0  0  0  0  0  0  0  0
  -11.4983    0.7062    2.2720 H   0  0  0  0  0  0  0  0  0  0  0  0
  -13.7338   -3.0611    6.0542 H   0  0  0  0  0  0  0  0  0  0  0  0
  -14.6100   -2.0399    6.8530 H   0  0  0  0  0  0  0  0  0  0  0  0
  -10.0702   -2.3598    6.0625 H   0  0  0  0  0  0  0  0  0  0  0  0
  -11.4636   -2.3932    7.0323 H   0  0  0  0  0  0  0  0  0  0  0  0
   -8.7586   -1.3266    7.9156 H   0  0  0  0  0  0  0  0  0  0  0  0
   -9.5644   -2.6640    8.4494 H   0  0  0  0  0  0  0  0  0  0  0  0
   -9.6601    0.0344    9.4361 H   0  0  0  0  0  0  0  0  0  0  0  0
  -10.3627   -1.3688   10.1730 H   0  0  0  0  0  0  0  0  0  0  0  0
  -12.4281   -1.0812    8.6699 H   0  0  0  0  0  0  0  0  0  0  0  0
  -14.3621   -0.4451    9.6890 H   0  0  0  0  0  0  0  0  0  0  0  0
  -15.5211    0.5414   11.6155 H   0  0  0  0  0  0  0  0  0  0  0  0
  -14.3035    2.0604   13.1682 H   0  0  0  0  0  0  0  0  0  0  0  0
  -11.9328    2.6069   12.7375 H   0  0  0  0  0  0  0  0  0  0  0  0
  -10.7435    1.6233   10.8152 H   0  0  0  0  0  0  0  0  0  0  0  0
   -8.3873    1.2916    7.2985 H   0  0  0  0  0  0  0  0  0  0  0  0
   -6.2595    0.6279    8.1057 H   0  0  0  0  0  0  0  0  0  0  0  0
  1  2  1  0
  2  3  1  0
  3  4  2  0
  3  5  1  0
  5  6  1  0
  6  7  2  0
  7  8  1  0
  8  9  2  0
  9 10  1  0
 10 11  1  0
 11 12  1  0
 12 13  1  0
 13 14  2  0
 14 15  1  0
 15 16  2  0
 16 17  1  0
 16 18  1  0
 18 19  1  0
 19 20  1  0
 20 21  1  0
 21 22  1  0
 22 23  1  0
 23 24  1  0
 24 25  2  0
 25 26  1  0
 26 27  2  0
 27 28  1  0
 28 29  2  0
 23 30  1  0
 30 31  2  0
 30 32  2  0
  9 33  1  0
 33 34  2  0
 34  6  1  0
 19 10  1  0
 29 24  1  0
 18 13  1  0
 30 19  1  0
  1 35  1  0
  1 36  1  0
  1 37  1  0
  2 38  1  0
  5 39  1  0
  5 40  1  0
  7 41  1  0
  8 42  1  0
 10 43  1  0
 11 44  1  0
 11 45  1  0
 12 46  1  0
 12 47  1  0
 17 48  1  0
 17 49  1  0
 20 50  1  0
 20 51  1  0
 21 52  1  0
 21 53  1  0
 22 54  1  0
 22 55  1  0
 23 56  1  0
 25 57  1  0
 26 58  1  0
 27 59  1  0
 28 60  1  0
 29 61  1  0
 33 62  1  0
 34 63  1  0
M  END
>  <Energy>  (717) 
94.64089963809522

>  <compound_id>  (717) 
3680

>  <target_id>  (717) 
1

>  <reference_id>  (717) 
127

>  <inspiration_ids>  (717) 
[127, 126]

>  <energy_score>  (717) 
-47.47988856029133

>  <distance_score>  (717) 
1.4928693258182368

>  <path>  (717) 
/opt/xchem-fragalysis-2/maxwin/BulkDock/SCRATCH/505734/C3680-P127/C3680-P127.minimised.mol

>  <scratch_subdir>  (717) 
/opt/xchem-fragalysis-2/maxwin/BulkDock/SCRATCH/505734/C3680-P127

>  <fragmenstein_runtime>  (717) 
13.875215291976929

>  <fragmenstein_outcome>  (717) 
too moved

>  <fragmenstein_mode>  (717) 
expansion

>  <fragmenstein_error>  (717) 


$$$$
C3680-P126
     RDKit          3D

 63 67  0  0  0  0  0  0  0  0999 V2000
   -6.0378    1.9606    5.5669 C   0  0  0  0  0  0  0  0  0  0  0  0
   -5.9341    0.6147    6.0506 N   0  0  0  0  0  0  0  0  0  0  0  0
   -5.3552    0.0639    7.3816 C   0  0  0  0  0  0  0  0  0  0  0  0
   -4.8057    0.6141    8.2518 O   0  0  0  0  0  0  0  0  0  0  0  0
   -5.6929   -1.4272    7.5291 C   0  0  0  0  0  0  0  0  0  0  0  0
   -7.1619   -1.6033    7.3372 C   0  0  0  0  0  0  0  0  0  0  0  0
   -7.6938   -2.1937    6.1970 C   0  0  0  0  0  0  0  0  0  0  0  0
   -8.9148   -1.7159    5.7134 C   0  0  0  0  0  0  0  0  0  0  0  0
   -9.5615   -0.6237    6.3360 C   0  0  0  0  0  0  0  0  0  0  0  0
  -10.5181    0.3481    5.5886 C   0  0  0  0  0  0  0  0  0  0  0  0
  -10.2517    0.2145    4.0588 C   0  0  0  0  0  0  0  0  0  0  0  0
  -10.8158    1.3968    3.2977 C   0  0  0  0  0  0  0  0  0  0  0  0
  -12.2495    1.5194    3.5908 C   0  0  0  0  0  0  0  0  0  0  0  0
  -13.1862    1.9349    2.7703 N   0  0  0  0  0  0  0  0  0  0  0  0
  -14.3795    1.8653    3.4345 N   0  0  0  0  0  0  0  0  0  0  0  0
  -14.1435    1.4428    4.6523 C   0  0  0  0  0  0  0  0  0  0  0  0
  -15.0474    1.3227    5.6487 N   0  0  0  0  0  0  0  0  0  0  0  0
  -12.8027    1.1596    4.7952 N   0  0  0  0  0  0  0  0  0  0  0  0
  -12.0966    0.4549    5.9108 C   0  0  0  0  0  0  0  0  0  0  0  0
  -12.7485   -0.9422    6.0300 C   0  0  0  0  0  0  0  0  0  0  0  0
  -12.4057   -1.7781    7.2484 C   0  0  0  0  0  0  0  0  0  0  0  0
  -12.3708   -1.0358    8.5789 C   0  0  0  0  0  0  0  0  0  0  0  0
  -13.1125    0.2742    8.6210 C   0  0  0  0  0  0  0  0  0  0  0  0
  -13.2735    0.7643   10.0648 C   0  0  0  0  0  0  0  0  0  0  0  0
  -14.4728    0.4168   10.7180 C   0  0  0  0  0  0  0  0  0  0  0  0
  -14.7046    0.7445   12.0553 C   0  0  0  0  0  0  0  0  0  0  0  0
  -13.7360    1.4264   12.7792 C   0  0  0  0  0  0  0  0  0  0  0  0
  -12.5331    1.7624   12.1660 C   0  0  0  0  0  0  0  0  0  0  0  0
  -12.2949    1.4208   10.8265 C   0  0  0  0  0  0  0  0  0  0  0  0
  -12.3633    1.4492    7.5143 S   0  0  0  0  0  0  0  0  0  0  0  0
  -13.3582    2.4919    7.2996 O   0  0  0  0  0  0  0  0  0  0  0  0
  -11.0806    1.8684    8.0410 O   0  0  0  0  0  0  0  0  0  0  0  0
   -9.1021   -0.2651    7.6058 C   0  0  0  0  0  0  0  0  0  0  0  0
   -7.9510   -0.7943    8.1413 C   0  0  0  0  0  0  0  0  0  0  0  0
   -7.0083    2.0823    5.0810 H   0  0  0  0  0  0  0  0  0  0  0  0
   -5.9448    2.6541    6.4055 H   0  0  0  0  0  0  0  0  0  0  0  0
   -5.2375    2.1459    4.8487 H   0  0  0  0  0  0  0  0  0  0  0  0
   -6.2742   -0.1559    5.4838 H   0  0  0  0  0  0  0  0  0  0  0  0
   -5.4441   -1.6477    8.5616 H   0  0  0  0  0  0  0  0  0  0  0  0
   -5.0934   -2.0906    6.9136 H   0  0  0  0  0  0  0  0  0  0  0  0
   -7.1184   -2.8951    5.5993 H   0  0  0  0  0  0  0  0  0  0  0  0
   -9.2712   -2.1135    4.7655 H   0  0  0  0  0  0  0  0  0  0  0  0
  -10.1051    1.3428    5.8216 H   0  0  0  0  0  0  0  0  0  0  0  0
   -9.1747    0.1773    3.8494 H   0  0  0  0  0  0  0  0  0  0  0  0
  -10.6917   -0.7166    3.6779 H   0  0  0  0  0  0  0  0  0  0  0  0
  -10.2997    2.3208    3.5824 H   0  0  0  0  0  0  0  0  0  0  0  0
  -10.6586    1.2541    2.2229 H   0  0  0  0  0  0  0  0  0  0  0  0
  -14.8310    1.9591    6.4292 H   0  0  0  0  0  0  0  0  0  0  0  0
  -15.9732    1.6012    5.3239 H   0  0  0  0  0  0  0  0  0  0  0  0
  -12.5209   -1.5243    5.1286 H   0  0  0  0  0  0  0  0  0  0  0  0
  -13.8410   -0.8566    6.0301 H   0  0  0  0  0  0  0  0  0  0  0  0
  -11.4652   -2.3152    7.0981 H   0  0  0  0  0  0  0  0  0  0  0  0
  -13.1610   -2.5724    7.3171 H   0  0  0  0  0  0  0  0  0  0  0  0
  -11.3387   -0.9002    8.9129 H   0  0  0  0  0  0  0  0  0  0  0  0
  -12.8404   -1.6802    9.3117 H   0  0  0  0  0  0  0  0  0  0  0  0
  -14.1213    0.1282    8.2116 H   0  0  0  0  0  0  0  0  0  0  0  0
  -15.2475   -0.1337   10.1843 H   0  0  0  0  0  0  0  0  0  0  0  0
  -15.6439    0.4678   12.5261 H   0  0  0  0  0  0  0  0  0  0  0  0
  -13.9064    1.7016   13.8163 H   0  0  0  0  0  0  0  0  0  0  0  0
  -11.7717    2.2958   12.7307 H   0  0  0  0  0  0  0  0  0  0  0  0
  -11.3263    1.6782   10.4047 H   0  0  0  0  0  0  0  0  0  0  0  0
   -9.5163    0.5446    8.1821 H   0  0  0  0  0  0  0  0  0  0  0  0
   -7.5651   -0.3612    9.0641 H   0  0  0  0  0  0  0  0  0  0  0  0
  1  2  1  0
  2  3  1  0
  3  4  2  0
  3  5  1  0
  5  6  1  0
  6  7  2  0
  7  8  1  0
  8  9  2  0
  9 10  1  0
 10 11  1  0
 11 12  1  0
 12 13  1  0
 13 14  2  0
 14 15  1  0
 15 16  2  0
 16 17  1  0
 16 18  1  0
 18 19  1  0
 19 20  1  0
 20 21  1  0
 21 22  1  0
 22 23  1  0
 23 24  1  0
 24 25  2  0
 25 26  1  0
 26 27  2  0
 27 28  1  0
 28 29  2  0
 23 30  1  0
 30 31  2  0
 30 32  2  0
  9 33  1  0
 33 34  2  0
 34  6  1  0
 19 10  1  0
 29 24  1  0
 18 13  1  0
 30 19  1  0
  1 35  1  0
  1 36  1  0
  1 37  1  0
  2 38  1  0
  5 39  1  0
  5 40  1  0
  7 41  1  0
  8 42  1  0
 10 43  1  0
 11 44  1  0
 11 45  1  0
 12 46  1  0
 12 47  1  0
 17 48  1  0
 17 49  1  0
 20 50  1  0
 20 51  1  0
 21 52  1  0
 21 53  1  0
 22 54  1  0
 22 55  1  0
 23 56  1  0
 25 57  1  0
 26 58  1  0
 27 59  1  0
 28 60  1  0
 29 61  1  0
 33 62  1  0
 34 63  1  0
M  END
>  <Energy>  (718) 
99.588704194248692

>  <compound_id>  (718) 
3680

>  <target_id>  (718) 
1

>  <reference_id>  (718) 
126

>  <inspiration_ids>  (718) 
[127, 126]

>  <energy_score>  (718) 
-42.532084004137005

>  <distance_score>  (718) 
1.7651992378722086

>  <path>  (718) 
/opt/xchem-fragalysis-2/maxwin/BulkDock/SCRATCH/505734/C3680-P126/C3680-P126.minimised.mol

>  <scratch_subdir>  (718) 
/opt/xchem-fragalysis-2/maxwin/BulkDock/SCRATCH/505734/C3680-P126

>  <fragmenstein_runtime>  (718) 
14.635462522506714

>  <fragmenstein_outcome>  (718) 
too moved

>  <fragmenstein_mode>  (718) 
expansion

>  <fragmenstein_error>  (718) 


$$$$
C3681-P128
     RDKit          3D

 49 52  0  0  0  0  0  0  0  0999 V2000
    5.7123    2.8902   30.9334 C   0  0  0  0  0  0  0  0  0  0  0  0
    5.7613    1.7592   31.8144 N   0  0  0  0  0  0  0  0  0  0  0  0
    6.8714    0.9800   32.2856 C   0  0  0  0  0  0  0  0  0  0  0  0
    8.0503    1.1223   32.1271 O   0  0  0  0  0  0  0  0  0  0  0  0
    6.3840   -0.1619   33.1891 C   0  0  0  0  0  0  0  0  0  0  0  0
    5.3367   -1.0687   32.5814 C   0  0  0  0  0  0  0  0  0  0  0  0
    4.2265   -1.4623   33.3345 C   0  0  0  0  0  0  0  0  0  0  0  0
    3.2483   -2.2807   32.7669 C   0  0  0  0  0  0  0  0  0  0  0  0
    3.3552   -2.7233   31.4357 C   0  0  0  0  0  0  0  0  0  0  0  0
    2.3054   -3.6042   30.8780 C   0  0  0  0  0  0  0  0  0  0  0  0
    2.5875   -4.8554   30.1703 C   0  0  0  0  0  0  0  0  0  0  0  0
    1.6462   -5.8045   30.0307 C   0  0  0  0  0  0  0  0  0  0  0  0
    0.4476   -5.6859   30.7652 C   0  0  0  0  0  0  0  0  0  0  0  0
   -0.4735   -6.5463   31.1281 N   0  0  0  0  0  0  0  0  0  0  0  0
   -1.3573   -5.8716   31.9337 N   0  0  0  0  0  0  0  0  0  0  0  0
   -1.0033   -4.6057   31.9881 C   0  0  0  0  0  0  0  0  0  0  0  0
   -1.5813   -3.6337   32.7340 N   0  0  0  0  0  0  0  0  0  0  0  0
    0.1365   -4.4205   31.2301 N   0  0  0  0  0  0  0  0  0  0  0  0
    0.9912   -3.3156   31.0661 C   0  0  0  0  0  0  0  0  0  0  0  0
    0.4710   -2.1139   30.6228 N   0  0  0  0  0  0  0  0  0  0  0  0
    1.1245   -0.9759   29.8469 C   0  0  0  0  0  0  0  0  0  0  0  0
    2.2419   -0.8322   29.5216 O   0  0  0  0  0  0  0  0  0  0  0  0
   -0.0772   -0.1534   29.5367 N   0  0  0  0  0  0  0  0  0  0  0  0
   -0.2263    0.9307   28.7228 C   0  0  0  0  0  0  0  0  0  0  0  0
    0.7581    1.5819   27.9503 C   0  0  0  0  0  0  0  0  0  0  0  0
    0.2495    2.5656   27.2020 N   0  0  0  0  0  0  0  0  0  0  0  0
   -1.0582    2.5577   27.5189 N   0  0  0  0  0  0  0  0  0  0  0  0
   -1.3862    1.5834   28.4188 C   0  0  0  0  0  0  0  0  0  0  0  0
    4.4909   -2.3711   30.7061 C   0  0  0  0  0  0  0  0  0  0  0  0
    5.4717   -1.5526   31.2732 C   0  0  0  0  0  0  0  0  0  0  0  0
    5.3293    2.5574   29.9659 H   0  0  0  0  0  0  0  0  0  0  0  0
    5.0384    3.6363   31.3596 H   0  0  0  0  0  0  0  0  0  0  0  0
    6.7148    3.3063   30.8105 H   0  0  0  0  0  0  0  0  0  0  0  0
    4.8974    1.2942   32.0731 H   0  0  0  0  0  0  0  0  0  0  0  0
    6.0089    0.2992   34.1114 H   0  0  0  0  0  0  0  0  0  0  0  0
    7.2476   -0.7794   33.4658 H   0  0  0  0  0  0  0  0  0  0  0  0
    4.1102   -1.1318   34.3641 H   0  0  0  0  0  0  0  0  0  0  0  0
    2.3996   -2.5718   33.3807 H   0  0  0  0  0  0  0  0  0  0  0  0
    3.5341   -4.9413   29.6442 H   0  0  0  0  0  0  0  0  0  0  0  0
    1.7943   -6.6611   29.3900 H   0  0  0  0  0  0  0  0  0  0  0  0
   -2.1879   -3.9909   33.4886 H   0  0  0  0  0  0  0  0  0  0  0  0
   -0.9635   -2.9294   33.1297 H   0  0  0  0  0  0  0  0  0  0  0  0
   -0.5219   -1.9650   30.6605 H   0  0  0  0  0  0  0  0  0  0  0  0
   -0.8899   -0.6035   29.9054 H   0  0  0  0  0  0  0  0  0  0  0  0
    1.8167    1.3630   27.8851 H   0  0  0  0  0  0  0  0  0  0  0  0
   -1.6715    3.2451   27.0880 H   0  0  0  0  0  0  0  0  0  0  0  0
   -2.4019    1.4700   28.7419 H   0  0  0  0  0  0  0  0  0  0  0  0
    4.6073   -2.6896   29.6729 H   0  0  0  0  0  0  0  0  0  0  0  0
    6.3355   -1.2791   30.6683 H   0  0  0  0  0  0  0  0  0  0  0  0
  1  2  1  0
  2  3  1  0
  3  4  2  0
  3  5  1  0
  5  6  1  0
  6  7  2  0
  7  8  1  0
  8  9  2  0
  9 10  1  0
 10 11  1  0
 11 12  2  0
 12 13  1  0
 13 14  2  0
 14 15  1  0
 15 16  2  0
 16 17  1  0
 16 18  1  0
 18 19  1  0
 19 20  1  0
 20 21  1  0
 21 22  2  0
 21 23  1  0
 23 24  1  0
 24 25  1  0
 25 26  2  0
 26 27  1  0
 27 28  1  0
  9 29  1  0
 29 30  2  0
 30  6  1  0
 19 10  2  0
 28 24  2  0
 18 13  1  0
  1 31  1  0
  1 32  1  0
  1 33  1  0
  2 34  1  0
  5 35  1  0
  5 36  1  0
  7 37  1  0
  8 38  1  0
 11 39  1  0
 12 40  1  0
 17 41  1  0
 17 42  1  0
 20 43  1  0
 23 44  1  0
 25 45  1  0
 27 46  1  0
 28 47  1  0
 29 48  1  0
 30 49  1  0
M  END
>  <Energy>  (719) 
88.328915735942942

>  <compound_id>  (719) 
3681

>  <target_id>  (719) 
1

>  <reference_id>  (719) 
128

>  <inspiration_ids>  (719) 
[128, 13]

>  <energy_score>  (719) 
-39.20648077559119

>  <distance_score>  (719) 
2.8813371753754966

>  <path>  (719) 
/opt/xchem-fragalysis-2/maxwin/BulkDock/SCRATCH/505734/C3681-P128/C3681-P128.minimised.mol

>  <scratch_subdir>  (719) 
/opt/xchem-fragalysis-2/maxwin/BulkDock/SCRATCH/505734/C3681-P128

>  <fragmenstein_runtime>  (719) 
12.944234132766724

>  <fragmenstein_outcome>  (719) 
too moved

>  <fragmenstein_mode>  (719) 
expansion

>  <fragmenstein_error>  (719) 


$$$$
C3681-P13
     RDKit          3D

 49 52  0  0  0  0  0  0  0  0999 V2000
    5.4898    2.8401   30.5931 C   0  0  0  0  0  0  0  0  0  0  0  0
    5.6080    1.7382   31.5032 N   0  0  0  0  0  0  0  0  0  0  0  0
    6.7629    1.0343   31.9850 C   0  0  0  0  0  0  0  0  0  0  0  0
    7.9308    1.2368   31.8118 O   0  0  0  0  0  0  0  0  0  0  0  0
    6.3477   -0.1018   32.9313 C   0  0  0  0  0  0  0  0  0  0  0  0
    5.3052   -1.0520   32.3845 C   0  0  0  0  0  0  0  0  0  0  0  0
    4.2086   -1.4220   33.1688 C   0  0  0  0  0  0  0  0  0  0  0  0
    3.2367   -2.2811   32.6533 C   0  0  0  0  0  0  0  0  0  0  0  0
    3.3381   -2.7884   31.3450 C   0  0  0  0  0  0  0  0  0  0  0  0
    2.3024   -3.7198   30.8509 C   0  0  0  0  0  0  0  0  0  0  0  0
    2.6174   -5.0389   30.2874 C   0  0  0  0  0  0  0  0  0  0  0  0
    1.6853   -6.0047   30.2105 C   0  0  0  0  0  0  0  0  0  0  0  0
    0.4667   -5.8313   30.8935 C   0  0  0  0  0  0  0  0  0  0  0  0
   -0.4669   -6.6614   31.2919 N   0  0  0  0  0  0  0  0  0  0  0  0
   -1.3654   -5.9285   32.0229 N   0  0  0  0  0  0  0  0  0  0  0  0
   -1.0069   -4.6636   31.9921 C   0  0  0  0  0  0  0  0  0  0  0  0
   -1.5939   -3.6371   32.6523 N   0  0  0  0  0  0  0  0  0  0  0  0
    0.1415   -4.5355   31.2397 N   0  0  0  0  0  0  0  0  0  0  0  0
    0.9815   -3.4363   30.9947 C   0  0  0  0  0  0  0  0  0  0  0  0
    0.4214   -2.2694   30.5101 N   0  0  0  0  0  0  0  0  0  0  0  0
    1.0495   -1.1078   29.7627 C   0  0  0  0  0  0  0  0  0  0  0  0
    2.1732   -0.9009   29.4966 O   0  0  0  0  0  0  0  0  0  0  0  0
   -0.1808   -0.3601   29.3790 N   0  0  0  0  0  0  0  0  0  0  0  0
   -0.3491    0.7060   28.5470 C   0  0  0  0  0  0  0  0  0  0  0  0
    0.6329    1.3985   27.8103 C   0  0  0  0  0  0  0  0  0  0  0  0
    0.1112    2.3604   27.0437 N   0  0  0  0  0  0  0  0  0  0  0  0
   -1.2082    2.2893   27.3065 N   0  0  0  0  0  0  0  0  0  0  0  0
   -1.5288    1.2945   28.1877 C   0  0  0  0  0  0  0  0  0  0  0  0
    4.4601   -2.4582   30.5849 C   0  0  0  0  0  0  0  0  0  0  0  0
    5.4332   -1.5974   31.0996 C   0  0  0  0  0  0  0  0  0  0  0  0
    4.8691    2.5280   29.7502 H   0  0  0  0  0  0  0  0  0  0  0  0
    5.0096    3.6709   31.1146 H   0  0  0  0  0  0  0  0  0  0  0  0
    6.4798    3.1386   30.2411 H   0  0  0  0  0  0  0  0  0  0  0  0
    4.7764    1.3326   31.9189 H   0  0  0  0  0  0  0  0  0  0  0  0
    5.9972    0.3670   33.8592 H   0  0  0  0  0  0  0  0  0  0  0  0
    7.2401   -0.6880   33.1837 H   0  0  0  0  0  0  0  0  0  0  0  0
    4.0985   -1.0425   34.1821 H   0  0  0  0  0  0  0  0  0  0  0  0
    2.3985   -2.5542   33.2894 H   0  0  0  0  0  0  0  0  0  0  0  0
    3.5787   -5.1624   29.7971 H   0  0  0  0  0  0  0  0  0  0  0  0
    1.8333   -6.9125   29.6473 H   0  0  0  0  0  0  0  0  0  0  0  0
   -2.2066   -3.9285   33.4304 H   0  0  0  0  0  0  0  0  0  0  0  0
   -0.9832   -2.8957   32.9875 H   0  0  0  0  0  0  0  0  0  0  0  0
   -0.5798   -2.1765   30.4910 H   0  0  0  0  0  0  0  0  0  0  0  0
   -0.9700   -0.7609   29.8441 H   0  0  0  0  0  0  0  0  0  0  0  0
    1.7021    1.2303   27.7920 H   0  0  0  0  0  0  0  0  0  0  0  0
   -1.8344    2.9500   26.8529 H   0  0  0  0  0  0  0  0  0  0  0  0
   -2.5540    1.1188   28.4551 H   0  0  0  0  0  0  0  0  0  0  0  0
    4.5708   -2.8296   29.5693 H   0  0  0  0  0  0  0  0  0  0  0  0
    6.2866   -1.3394   30.4736 H   0  0  0  0  0  0  0  0  0  0  0  0
  1  2  1  0
  2  3  1  0
  3  4  2  0
  3  5  1  0
  5  6  1  0
  6  7  2  0
  7  8  1  0
  8  9  2  0
  9 10  1  0
 10 11  1  0
 11 12  2  0
 12 13  1  0
 13 14  2  0
 14 15  1  0
 15 16  2  0
 16 17  1  0
 16 18  1  0
 18 19  1  0
 19 20  1  0
 20 21  1  0
 21 22  2  0
 21 23  1  0
 23 24  1  0
 24 25  1  0
 25 26  2  0
 26 27  1  0
 27 28  1  0
  9 29  1  0
 29 30  2  0
 30  6  1  0
 19 10  2  0
 28 24  2  0
 18 13  1  0
  1 31  1  0
  1 32  1  0
  1 33  1  0
  2 34  1  0
  5 35  1  0
  5 36  1  0
  7 37  1  0
  8 38  1  0
 11 39  1  0
 12 40  1  0
 17 41  1  0
 17 42  1  0
 20 43  1  0
 23 44  1  0
 25 45  1  0
 27 46  1  0
 28 47  1  0
 29 48  1  0
 30 49  1  0
M  END
>  <Energy>  (720) 
85.189959413018144

>  <compound_id>  (720) 
3681

>  <target_id>  (720) 
1

>  <reference_id>  (720) 
13

>  <inspiration_ids>  (720) 
[128, 13]

>  <energy_score>  (720) 
-42.34543709851579

>  <distance_score>  (720) 
2.867547410426754

>  <path>  (720) 
/opt/xchem-fragalysis-2/maxwin/BulkDock/SCRATCH/505734/C3681-P13/C3681-P13.minimised.mol

>  <scratch_subdir>  (720) 
/opt/xchem-fragalysis-2/maxwin/BulkDock/SCRATCH/505734/C3681-P13

>  <fragmenstein_runtime>  (720) 
12.285211563110352

>  <fragmenstein_outcome>  (720) 
too moved

>  <fragmenstein_mode>  (720) 
expansion

>  <fragmenstein_error>  (720) 


$$$$
C3681-P128
     RDKit          2D

  0  0  0  0  0  0  0  0  0  0999 V2000
M  END
>  <compound_id>  (721) 
3681

>  <target_id>  (721) 
1

>  <reference_id>  (721) 
128

>  <inspiration_ids>  (721) 
[128, 25]

>  <energy_score>  (721) 
nan

>  <distance_score>  (721) 
nan

>  <path>  (721) 
/opt/xchem-fragalysis-2/maxwin/BulkDock/SCRATCH/505734/C3681-P128/C3681-P128.minimised.mol

>  <scratch_subdir>  (721) 
/opt/xchem-fragalysis-2/maxwin/BulkDock/SCRATCH/505734/C3681-P128

>  <fragmenstein_runtime>  (721) 
0.18509483337402344

>  <fragmenstein_outcome>  (721) 
too distant

>  <fragmenstein_mode>  (721) 
expansion

>  <fragmenstein_error>  (721) 
DistanceError: hit0+hit1

$$$$
C3682-P128
     RDKit          3D

 63 68  0  0  0  0  0  0  0  0999 V2000
    2.7210    0.5320   30.0604 C   0  0  0  0  0  0  0  0  0  0  0  0
    2.0200   -0.2639   30.8792 C   0  0  0  0  0  0  0  0  0  0  0  0
    2.4082   -1.6683   31.2414 C   0  0  0  0  0  0  0  0  0  0  0  0
    1.2908   -2.5855   31.0871 N   0  0  0  0  0  0  0  0  0  0  0  0
    0.9285   -3.2581   29.9334 C   0  0  0  0  0  0  0  0  0  0  0  0
    1.8379   -3.6001   28.8470 C   0  0  0  0  0  0  0  0  0  0  0  0
    2.1725   -4.9442   28.6334 C   0  0  0  0  0  0  0  0  0  0  0  0
    3.1429   -5.2954   27.6983 C   0  0  0  0  0  0  0  0  0  0  0  0
    3.7633   -4.2782   27.0019 C   0  0  0  0  0  0  0  0  0  0  0  0
    3.4587   -2.9748   27.1676 N   0  0  0  0  0  0  0  0  0  0  0  0
    2.4888   -2.6639   28.0655 C   0  0  0  0  0  0  0  0  0  0  0  0
   -0.2556   -3.8000   30.1493 N   0  0  0  0  0  0  0  0  0  0  0  0
   -0.5392   -3.6975   31.4875 N   0  0  0  0  0  0  0  0  0  0  0  0
    0.5224   -3.1787   32.0778 C   0  0  0  0  0  0  0  0  0  0  0  0
    1.0038   -3.5155   33.5099 C   0  0  0  0  0  0  0  0  0  0  0  0
    1.2682   -2.2288   34.3055 C   0  0  0  0  0  0  0  0  0  0  0  0
    2.4177   -2.0477   35.0934 C   0  0  0  0  0  0  0  0  0  0  0  0
    2.6768   -0.8252   35.7140 C   0  0  0  0  0  0  0  0  0  0  0  0
    1.7865    0.2443   35.5797 C   0  0  0  0  0  0  0  0  0  0  0  0
    2.0947    1.5746   36.2246 C   0  0  0  0  0  0  0  0  0  0  0  0
    3.3522    2.2342   35.6458 C   0  0  0  0  0  0  0  0  0  0  0  0
    4.3582    2.2475   36.2950 O   0  0  0  0  0  0  0  0  0  0  0  0
    3.0782    2.7413   34.3299 N   0  0  0  0  0  0  0  0  0  0  0  0
    3.8931    3.5009   33.4260 C   0  0  0  0  0  0  0  0  0  0  0  0
    0.6095    0.0573   34.8500 C   0  0  0  0  0  0  0  0  0  0  0  0
    0.3486   -1.1657   34.2310 C   0  0  0  0  0  0  0  0  0  0  0  0
    2.3097   -4.3747   33.3023 C   0  0  0  0  0  0  0  0  0  0  0  0
    2.0712   -5.6200   32.4273 C   0  0  0  0  0  0  0  0  0  0  0  0
    0.7758   -6.2679   32.6931 C   0  0  0  0  0  0  0  0  0  0  0  0
    0.2757   -7.4044   32.2677 N   0  0  0  0  0  0  0  0  0  0  0  0
   -0.7123   -7.7653   33.1688 N   0  0  0  0  0  0  0  0  0  0  0  0
   -0.7701   -6.8251   34.0906 C   0  0  0  0  0  0  0  0  0  0  0  0
   -1.3193   -6.7149   35.3875 C   0  0  0  0  0  0  0  0  0  0  0  0
   -1.1884   -5.5475   36.0569 C   0  0  0  0  0  0  0  0  0  0  0  0
   -0.5299   -4.3744   35.4712 C   0  0  0  0  0  0  0  0  0  0  0  0
    0.0886   -4.5054   34.2777 C   0  0  0  0  0  0  0  0  0  0  0  0
   -0.0192   -5.7598   33.6725 N   0  0  0  0  0  0  0  0  0  0  0  0
    3.6440    0.2091   29.5865 H   0  0  0  0  0  0  0  0  0  0  0  0
    2.3795    1.5400   29.8399 H   0  0  0  0  0  0  0  0  0  0  0  0
    1.1069    0.1257   31.3273 H   0  0  0  0  0  0  0  0  0  0  0  0
    3.2476   -2.0375   30.6447 H   0  0  0  0  0  0  0  0  0  0  0  0
    2.7460   -1.6752   32.2756 H   0  0  0  0  0  0  0  0  0  0  0  0
    1.6685   -5.7200   29.2062 H   0  0  0  0  0  0  0  0  0  0  0  0
    3.4152   -6.3277   27.5212 H   0  0  0  0  0  0  0  0  0  0  0  0
    4.5394   -4.4840   26.2694 H   0  0  0  0  0  0  0  0  0  0  0  0
    2.2556   -1.6049   28.1276 H   0  0  0  0  0  0  0  0  0  0  0  0
    3.1512   -2.8366   35.2341 H   0  0  0  0  0  0  0  0  0  0  0  0
    3.5883   -0.7067   36.3000 H   0  0  0  0  0  0  0  0  0  0  0  0
    2.2386    1.4277   37.3024 H   0  0  0  0  0  0  0  0  0  0  0  0
    1.2520    2.2701   36.1264 H   0  0  0  0  0  0  0  0  0  0  0  0
    2.0912    2.6276   34.1310 H   0  0  0  0  0  0  0  0  0  0  0  0
    3.7929    3.0761   32.4249 H   0  0  0  0  0  0  0  0  0  0  0  0
    3.5380    4.5339   33.4256 H   0  0  0  0  0  0  0  0  0  0  0  0
    4.9350    3.4683   33.7522 H   0  0  0  0  0  0  0  0  0  0  0  0
   -0.1207    0.8590   34.7577 H   0  0  0  0  0  0  0  0  0  0  0  0
   -0.5828   -1.2759   33.6739 H   0  0  0  0  0  0  0  0  0  0  0  0
    2.6792   -4.7260   34.2781 H   0  0  0  0  0  0  0  0  0  0  0  0
    3.1370   -3.7985   32.8719 H   0  0  0  0  0  0  0  0  0  0  0  0
    2.8420   -6.3257   32.7170 H   0  0  0  0  0  0  0  0  0  0  0  0
    2.1950   -5.3988   31.3707 H   0  0  0  0  0  0  0  0  0  0  0  0
   -1.7539   -7.6050   35.8234 H   0  0  0  0  0  0  0  0  0  0  0  0
   -1.5481   -5.4471   37.0759 H   0  0  0  0  0  0  0  0  0  0  0  0
   -0.5050   -3.4631   36.0593 H   0  0  0  0  0  0  0  0  0  0  0  0
  1  2  2  0
  2  3  1  0
  3  4  1  0
  4  5  1  0
  5  6  1  0
  6  7  2  0
  7  8  1  0
  8  9  2  0
  9 10  1  0
 10 11  2  0
  5 12  2  0
 12 13  1  0
 13 14  2  0
 14 15  1  0
 15 16  1  0
 16 17  2  0
 17 18  1  0
 18 19  2  0
 19 20  1  0
 20 21  1  0
 21 22  2  0
 21 23  1  0
 23 24  1  0
 19 25  1  0
 25 26  2  0
 15 27  1  0
 27 28  1  0
 28 29  1  0
 29 30  2  0
 30 31  1  0
 31 32  2  0
 32 33  1  0
 33 34  2  0
 34 35  1  0
 35 36  2  0
 36 37  1  0
 14  4  1  0
 36 15  1  0
 11  6  1  0
 26 16  1  0
 37 29  1  0
 37 32  1  0
  1 38  1  0
  1 39  1  0
  2 40  1  0
  3 41  1  0
  3 42  1  0
  7 43  1  0
  8 44  1  0
  9 45  1  0
 11 46  1  0
 17 47  1  0
 18 48  1  0
 20 49  1  0
 20 50  1  0
 23 51  1  0
 24 52  1  0
 24 53  1  0
 24 54  1  0
 25 55  1  0
 26 56  1  0
 27 57  1  0
 27 58  1  0
 28 59  1  0
 28 60  1  0
 33 61  1  0
 34 62  1  0
 35 63  1  0
M  END
>  <Energy>  (722) 
135.2658606513304

>  <compound_id>  (722) 
3682

>  <target_id>  (722) 
1

>  <reference_id>  (722) 
128

>  <inspiration_ids>  (722) 
[128, 40]

>  <energy_score>  (722) 
-40.54534154327439

>  <distance_score>  (722) 
2.3375196514171352

>  <path>  (722) 
/opt/xchem-fragalysis-2/maxwin/BulkDock/SCRATCH/505734/C3682-P128/C3682-P128.minimised.mol

>  <scratch_subdir>  (722) 
/opt/xchem-fragalysis-2/maxwin/BulkDock/SCRATCH/505734/C3682-P128

>  <fragmenstein_runtime>  (722) 
12.223959922790527

>  <fragmenstein_outcome>  (722) 
too moved

>  <fragmenstein_mode>  (722) 
expansion

>  <fragmenstein_error>  (722) 


$$$$
C3682-P40
     RDKit          3D

 63 68  0  0  0  0  0  0  0  0999 V2000
    4.4714   -1.5869   29.3393 C   0  0  0  0  0  0  0  0  0  0  0  0
    3.5583   -1.8763   30.2768 C   0  0  0  0  0  0  0  0  0  0  0  0
    3.3702   -3.2351   30.8858 C   0  0  0  0  0  0  0  0  0  0  0  0
    1.9695   -3.6472   30.9422 N   0  0  0  0  0  0  0  0  0  0  0  0
    1.2920   -4.2592   29.9029 C   0  0  0  0  0  0  0  0  0  0  0  0
    1.9179   -4.6797   28.6630 C   0  0  0  0  0  0  0  0  0  0  0  0
    2.1808   -6.0316   28.4394 C   0  0  0  0  0  0  0  0  0  0  0  0
    2.9744   -6.4172   27.3617 C   0  0  0  0  0  0  0  0  0  0  0  0
    3.4412   -5.4366   26.5090 C   0  0  0  0  0  0  0  0  0  0  0  0
    3.1440   -4.1305   26.6574 N   0  0  0  0  0  0  0  0  0  0  0  0
    2.3932   -3.7769   27.7297 C   0  0  0  0  0  0  0  0  0  0  0  0
    0.0773   -4.5604   30.3087 N   0  0  0  0  0  0  0  0  0  0  0  0
   -0.0378   -4.2054   31.6273 N   0  0  0  0  0  0  0  0  0  0  0  0
    1.1316   -3.7527   32.0447 C   0  0  0  0  0  0  0  0  0  0  0  0
    1.5639   -3.6429   33.5206 C   0  0  0  0  0  0  0  0  0  0  0  0
    2.3609   -2.3389   33.7604 C   0  0  0  0  0  0  0  0  0  0  0  0
    3.5428   -2.2993   34.5186 C   0  0  0  0  0  0  0  0  0  0  0  0
    4.2243   -1.0971   34.7241 C   0  0  0  0  0  0  0  0  0  0  0  0
    3.7379    0.1014   34.1919 C   0  0  0  0  0  0  0  0  0  0  0  0
    4.4626    1.4030   34.4474 C   0  0  0  0  0  0  0  0  0  0  0  0
    4.1009    2.0848   35.7784 C   0  0  0  0  0  0  0  0  0  0  0  0
    3.2365    1.6489   36.4804 O   0  0  0  0  0  0  0  0  0  0  0  0
    4.9677    3.2236   35.9509 N   0  0  0  0  0  0  0  0  0  0  0  0
    4.9989    4.2367   36.9671 C   0  0  0  0  0  0  0  0  0  0  0  0
    2.5457    0.0828   33.4642 C   0  0  0  0  0  0  0  0  0  0  0  0
    1.8667   -1.1180   33.2533 C   0  0  0  0  0  0  0  0  0  0  0  0
    2.4312   -4.9458   33.7596 C   0  0  0  0  0  0  0  0  0  0  0  0
    1.6245   -6.2428   33.5204 C   0  0  0  0  0  0  0  0  0  0  0  0
    0.3768   -6.2208   34.2966 C   0  0  0  0  0  0  0  0  0  0  0  0
   -0.3574   -7.2147   34.7414 N   0  0  0  0  0  0  0  0  0  0  0  0
   -1.1962   -6.6962   35.7114 N   0  0  0  0  0  0  0  0  0  0  0  0
   -0.9374   -5.4076   35.8167 C   0  0  0  0  0  0  0  0  0  0  0  0
   -1.3116   -4.3897   36.7278 C   0  0  0  0  0  0  0  0  0  0  0  0
   -0.9199   -3.1211   36.5039 C   0  0  0  0  0  0  0  0  0  0  0  0
   -0.0403   -2.7756   35.3944 C   0  0  0  0  0  0  0  0  0  0  0  0
    0.4250   -3.7500   34.5765 C   0  0  0  0  0  0  0  0  0  0  0  0
   -0.0607   -5.0415   34.8227 N   0  0  0  0  0  0  0  0  0  0  0  0
    5.1480   -2.3354   28.9364 H   0  0  0  0  0  0  0  0  0  0  0  0
    4.5551   -0.5793   28.9395 H   0  0  0  0  0  0  0  0  0  0  0  0
    2.9157   -1.0728   30.6297 H   0  0  0  0  0  0  0  0  0  0  0  0
    3.9209   -4.0069   30.3355 H   0  0  0  0  0  0  0  0  0  0  0  0
    3.7936   -3.2394   31.8869 H   0  0  0  0  0  0  0  0  0  0  0  0
    1.7829   -6.7714   29.1235 H   0  0  0  0  0  0  0  0  0  0  0  0
    3.2289   -7.4532   27.1748 H   0  0  0  0  0  0  0  0  0  0  0  0
    4.0755   -5.6817   25.6598 H   0  0  0  0  0  0  0  0  0  0  0  0
    2.1927   -2.7109   27.8129 H   0  0  0  0  0  0  0  0  0  0  0  0
    3.9598   -3.1876   34.9841 H   0  0  0  0  0  0  0  0  0  0  0  0
    5.1302   -1.0987   35.3279 H   0  0  0  0  0  0  0  0  0  0  0  0
    4.2470    2.1056   33.6324 H   0  0  0  0  0  0  0  0  0  0  0  0
    5.5434    1.2122   34.4282 H   0  0  0  0  0  0  0  0  0  0  0  0
    5.5264    3.3440   35.1138 H   0  0  0  0  0  0  0  0  0  0  0  0
    6.0307    4.3604   37.3039 H   0  0  0  0  0  0  0  0  0  0  0  0
    4.6386    5.1730   36.5340 H   0  0  0  0  0  0  0  0  0  0  0  0
    4.3581    3.9427   37.8016 H   0  0  0  0  0  0  0  0  0  0  0  0
    2.1228    1.0063   33.0732 H   0  0  0  0  0  0  0  0  0  0  0  0
    0.9260   -1.0855   32.7021 H   0  0  0  0  0  0  0  0  0  0  0  0
    2.7934   -4.9716   34.7979 H   0  0  0  0  0  0  0  0  0  0  0  0
    3.3277   -4.9635   33.1329 H   0  0  0  0  0  0  0  0  0  0  0  0
    2.2235   -7.0767   33.8875 H   0  0  0  0  0  0  0  0  0  0  0  0
    1.4166   -6.4090   32.4609 H   0  0  0  0  0  0  0  0  0  0  0  0
   -1.8862   -4.6459   37.6065 H   0  0  0  0  0  0  0  0  0  0  0  0
   -1.1955   -2.3266   37.1922 H   0  0  0  0  0  0  0  0  0  0  0  0
    0.2872   -1.7420   35.3509 H   0  0  0  0  0  0  0  0  0  0  0  0
  1  2  2  0
  2  3  1  0
  3  4  1  0
  4  5  1  0
  5  6  1  0
  6  7  2  0
  7  8  1  0
  8  9  2  0
  9 10  1  0
 10 11  2  0
  5 12  2  0
 12 13  1  0
 13 14  2  0
 14 15  1  0
 15 16  1  0
 16 17  2  0
 17 18  1  0
 18 19  2  0
 19 20  1  0
 20 21  1  0
 21 22  2  0
 21 23  1  0
 23 24  1  0
 19 25  1  0
 25 26  2  0
 15 27  1  0
 27 28  1  0
 28 29  1  0
 29 30  2  0
 30 31  1  0
 31 32  2  0
 32 33  1  0
 33 34  2  0
 34 35  1  0
 35 36  2  0
 36 37  1  0
 14  4  1  0
 36 15  1  0
 11  6  1  0
 26 16  1  0
 37 29  1  0
 37 32  1  0
  1 38  1  0
  1 39  1  0
  2 40  1  0
  3 41  1  0
  3 42  1  0
  7 43  1  0
  8 44  1  0
  9 45  1  0
 11 46  1  0
 17 47  1  0
 18 48  1  0
 20 49  1  0
 20 50  1  0
 23 51  1  0
 24 52  1  0
 24 53  1  0
 24 54  1  0
 25 55  1  0
 26 56  1  0
 27 57  1  0
 27 58  1  0
 28 59  1  0
 28 60  1  0
 33 61  1  0
 34 62  1  0
 35 63  1  0
M  END
>  <Energy>  (723) 
123.05759833262879

>  <compound_id>  (723) 
3682

>  <target_id>  (723) 
1

>  <reference_id>  (723) 
40

>  <inspiration_ids>  (723) 
[128, 40]

>  <energy_score>  (723) 
-52.7536038619761

>  <distance_score>  (723) 
2.5308323036726974

>  <path>  (723) 
/opt/xchem-fragalysis-2/maxwin/BulkDock/SCRATCH/505734/C3682-P40/C3682-P40.minimised.mol

>  <scratch_subdir>  (723) 
/opt/xchem-fragalysis-2/maxwin/BulkDock/SCRATCH/505734/C3682-P40

>  <fragmenstein_runtime>  (723) 
7.911485195159912

>  <fragmenstein_outcome>  (723) 
too moved

>  <fragmenstein_mode>  (723) 
expansion

>  <fragmenstein_error>  (723) 


$$$$
C3685-P128
     RDKit          3D

 49 53  0  0  0  0  0  0  0  0999 V2000
    4.5394    3.1616   36.0010 C   0  0  0  0  0  0  0  0  0  0  0  0
    4.9127    2.0274   35.2049 N   0  0  0  0  0  0  0  0  0  0  0  0
    4.1323    0.9234   34.7100 C   0  0  0  0  0  0  0  0  0  0  0  0
    2.9556    0.7093   34.7698 O   0  0  0  0  0  0  0  0  0  0  0  0
    5.0778   -0.0538   33.9837 C   0  0  0  0  0  0  0  0  0  0  0  0
    4.3695   -1.2730   33.4414 C   0  0  0  0  0  0  0  0  0  0  0  0
    4.3226   -2.4598   34.1814 C   0  0  0  0  0  0  0  0  0  0  0  0
    3.5659   -3.5421   33.7296 C   0  0  0  0  0  0  0  0  0  0  0  0
    2.8118   -3.4411   32.5528 C   0  0  0  0  0  0  0  0  0  0  0  0
    1.9046   -4.5355   32.1226 C   0  0  0  0  0  0  0  0  0  0  0  0
    2.0188   -5.0520   30.7579 C   0  0  0  0  0  0  0  0  0  0  0  0
    1.1774   -5.9684   30.2633 C   0  0  0  0  0  0  0  0  0  0  0  0
    0.2006   -6.5554   31.0965 C   0  0  0  0  0  0  0  0  0  0  0  0
   -0.6644   -7.5189   30.8772 N   0  0  0  0  0  0  0  0  0  0  0  0
   -1.2728   -7.7997   32.0711 N   0  0  0  0  0  0  0  0  0  0  0  0
   -0.8027   -6.9780   32.9859 C   0  0  0  0  0  0  0  0  0  0  0  0
   -1.0475   -7.0388   34.3121 N   0  0  0  0  0  0  0  0  0  0  0  0
    0.1101   -6.1005   32.4078 N   0  0  0  0  0  0  0  0  0  0  0  0
    0.9012   -5.0334   32.9060 C   0  0  0  0  0  0  0  0  0  0  0  0
    0.3923   -4.1943   34.3746 S   0  0  0  0  0  0  0  0  0  0  0  0
   -0.4578   -2.8997   33.5150 C   0  0  0  0  0  0  0  0  0  0  0  0
   -1.4719   -3.2889   32.8143 N   0  0  0  0  0  0  0  0  0  0  0  0
   -2.1061   -2.3666   32.0194 C   0  0  0  0  0  0  0  0  0  0  0  0
   -3.2398   -2.5641   31.6087 O   0  0  0  0  0  0  0  0  0  0  0  0
   -1.2812   -1.2213   31.7241 C   0  0  0  0  0  0  0  0  0  0  0  0
   -1.4445   -0.2217   30.3725 S   0  0  0  0  0  0  0  0  0  0  0  0
   -0.0998    0.7343   30.8602 C   0  0  0  0  0  0  0  0  0  0  0  0
    0.4476    0.2940   32.0485 C   0  0  0  0  0  0  0  0  0  0  0  0
   -0.2162   -0.8656   32.5090 C   0  0  0  0  0  0  0  0  0  0  0  0
    0.1065   -1.6440   33.5674 N   0  0  0  0  0  0  0  0  0  0  0  0
    2.9085   -2.2739   31.7852 C   0  0  0  0  0  0  0  0  0  0  0  0
    3.6826   -1.2004   32.2242 C   0  0  0  0  0  0  0  0  0  0  0  0
    5.1300    3.1500   36.9196 H   0  0  0  0  0  0  0  0  0  0  0  0
    3.4741    3.1135   36.2379 H   0  0  0  0  0  0  0  0  0  0  0  0
    4.7582    4.0696   35.4349 H   0  0  0  0  0  0  0  0  0  0  0  0
    5.8732    1.9164   34.9000 H   0  0  0  0  0  0  0  0  0  0  0  0
    5.8647   -0.3660   34.6815 H   0  0  0  0  0  0  0  0  0  0  0  0
    5.5663    0.4762   33.1565 H   0  0  0  0  0  0  0  0  0  0  0  0
    4.8506   -2.5421   35.1292 H   0  0  0  0  0  0  0  0  0  0  0  0
    3.5370   -4.4490   34.3304 H   0  0  0  0  0  0  0  0  0  0  0  0
    2.7979   -4.6431   30.1187 H   0  0  0  0  0  0  0  0  0  0  0  0
    1.2932   -6.3203   29.2513 H   0  0  0  0  0  0  0  0  0  0  0  0
   -1.6881   -7.7827   34.5908 H   0  0  0  0  0  0  0  0  0  0  0  0
   -1.2434   -6.1616   34.7913 H   0  0  0  0  0  0  0  0  0  0  0  0
    0.2095    1.5756   30.2535 H   0  0  0  0  0  0  0  0  0  0  0  0
    1.2975    0.7653   32.5274 H   0  0  0  0  0  0  0  0  0  0  0  0
    0.9936   -1.5422   34.0564 H   0  0  0  0  0  0  0  0  0  0  0  0
    2.3443   -2.1668   30.8600 H   0  0  0  0  0  0  0  0  0  0  0  0
    3.7055   -0.2881   31.6308 H   0  0  0  0  0  0  0  0  0  0  0  0
  1  2  1  0
  2  3  1  0
  3  4  2  0
  3  5  1  0
  5  6  1  0
  6  7  2  0
  7  8  1  0
  8  9  2  0
  9 10  1  0
 10 11  1  0
 11 12  2  0
 12 13  1  0
 13 14  2  0
 14 15  1  0
 15 16  2  0
 16 17  1  0
 16 18  1  0
 18 19  1  0
 19 20  1  0
 20 21  1  0
 21 22  2  0
 22 23  1  0
 23 24  2  0
 23 25  1  0
 25 26  1  0
 26 27  1  0
 27 28  2  0
 28 29  1  0
 29 30  1  0
  9 31  1  0
 31 32  2  0
 32  6  1  0
 19 10  2  0
 30 21  1  0
 18 13  1  0
 29 25  2  0
  1 33  1  0
  1 34  1  0
  1 35  1  0
  2 36  1  0
  5 37  1  0
  5 38  1  0
  7 39  1  0
  8 40  1  0
 11 41  1  0
 12 42  1  0
 17 43  1  0
 17 44  1  0
 27 45  1  0
 28 46  1  0
 30 47  1  0
 31 48  1  0
 32 49  1  0
M  END
>  <Energy>  (724) 
22.126748726991103

>  <compound_id>  (724) 
3685

>  <target_id>  (724) 
1

>  <reference_id>  (724) 
128

>  <inspiration_ids>  (724) 
[128, 59]

>  <energy_score>  (724) 
-110.3077756610551

>  <distance_score>  (724) 
1.9400384878692885

>  <path>  (724) 
/opt/xchem-fragalysis-2/maxwin/BulkDock/SCRATCH/505734/C3685-P128/C3685-P128.minimised.mol

>  <scratch_subdir>  (724) 
/opt/xchem-fragalysis-2/maxwin/BulkDock/SCRATCH/505734/C3685-P128

>  <fragmenstein_runtime>  (724) 
10.197267293930054

>  <fragmenstein_outcome>  (724) 
too moved

>  <fragmenstein_mode>  (724) 
expansion

>  <fragmenstein_error>  (724) 


$$$$
C3685-P59
     RDKit          3D

 49 53  0  0  0  0  0  0  0  0999 V2000
    1.4219    1.4159   36.3204 C   0  0  0  0  0  0  0  0  0  0  0  0
    2.3285    0.8238   35.3811 N   0  0  0  0  0  0  0  0  0  0  0  0
    3.7830    0.3148   35.5680 C   0  0  0  0  0  0  0  0  0  0  0  0
    4.4368    0.2296   36.5320 O   0  0  0  0  0  0  0  0  0  0  0  0
    4.2956   -0.1029   34.1878 C   0  0  0  0  0  0  0  0  0  0  0  0
    3.6028   -1.3242   33.6282 C   0  0  0  0  0  0  0  0  0  0  0  0
    3.5236   -2.5046   34.3776 C   0  0  0  0  0  0  0  0  0  0  0  0
    2.8705   -3.6252   33.8637 C   0  0  0  0  0  0  0  0  0  0  0  0
    2.2915   -3.5879   32.5876 C   0  0  0  0  0  0  0  0  0  0  0  0
    1.5368   -4.7650   32.0979 C   0  0  0  0  0  0  0  0  0  0  0  0
    1.9636   -5.4979   30.9100 C   0  0  0  0  0  0  0  0  0  0  0  0
    1.2284   -6.4929   30.3857 C   0  0  0  0  0  0  0  0  0  0  0  0
    0.0853   -6.9704   31.0676 C   0  0  0  0  0  0  0  0  0  0  0  0
   -0.7723   -7.9302   30.8084 N   0  0  0  0  0  0  0  0  0  0  0  0
   -1.5436   -8.0987   31.9297 N   0  0  0  0  0  0  0  0  0  0  0  0
   -1.1618   -7.2195   32.8333 C   0  0  0  0  0  0  0  0  0  0  0  0
   -1.4783   -7.2386   34.1488 N   0  0  0  0  0  0  0  0  0  0  0  0
   -0.2532   -6.3411   32.2541 N   0  0  0  0  0  0  0  0  0  0  0  0
    0.3558   -5.1390   32.6628 C   0  0  0  0  0  0  0  0  0  0  0  0
   -0.5954   -3.9786   33.5377 S   0  0  0  0  0  0  0  0  0  0  0  0
   -1.0725   -2.8172   32.2413 C   0  0  0  0  0  0  0  0  0  0  0  0
   -1.6750   -1.7624   32.6827 N   0  0  0  0  0  0  0  0  0  0  0  0
   -2.2170   -0.8874   31.7738 C   0  0  0  0  0  0  0  0  0  0  0  0
   -3.1264   -0.1428   32.1059 O   0  0  0  0  0  0  0  0  0  0  0  0
   -1.6518   -0.9926   30.4509 C   0  0  0  0  0  0  0  0  0  0  0  0
   -1.7529    0.1665   29.2281 S   0  0  0  0  0  0  0  0  0  0  0  0
   -0.9017   -0.8294   28.1292 C   0  0  0  0  0  0  0  0  0  0  0  0
   -0.5294   -2.0272   28.7015 C   0  0  0  0  0  0  0  0  0  0  0  0
   -0.9730   -2.1021   30.0412 C   0  0  0  0  0  0  0  0  0  0  0  0
   -0.8148   -3.1174   30.9146 N   0  0  0  0  0  0  0  0  0  0  0  0
    2.4125   -2.4263   31.8186 C   0  0  0  0  0  0  0  0  0  0  0  0
    3.0566   -1.3011   32.3384 C   0  0  0  0  0  0  0  0  0  0  0  0
    1.7958    1.2619   37.3348 H   0  0  0  0  0  0  0  0  0  0  0  0
    0.4407    0.9523   36.1993 H   0  0  0  0  0  0  0  0  0  0  0  0
    1.3545    2.4853   36.1089 H   0  0  0  0  0  0  0  0  0  0  0  0
    2.0987    0.8381   34.3939 H   0  0  0  0  0  0  0  0  0  0  0  0
    5.3699   -0.3111   34.2640 H   0  0  0  0  0  0  0  0  0  0  0  0
    4.1934    0.7560   33.5132 H   0  0  0  0  0  0  0  0  0  0  0  0
    3.9565   -2.5532   35.3763 H   0  0  0  0  0  0  0  0  0  0  0  0
    2.8022   -4.5180   34.4813 H   0  0  0  0  0  0  0  0  0  0  0  0
    2.8804   -5.1781   30.4184 H   0  0  0  0  0  0  0  0  0  0  0  0
    1.5645   -7.0111   29.4979 H   0  0  0  0  0  0  0  0  0  0  0  0
   -1.6696   -8.1845   34.4997 H   0  0  0  0  0  0  0  0  0  0  0  0
   -0.9249   -6.6978   34.8077 H   0  0  0  0  0  0  0  0  0  0  0  0
   -0.7341   -0.4952   27.1148 H   0  0  0  0  0  0  0  0  0  0  0  0
   -0.0001   -2.7996   28.1612 H   0  0  0  0  0  0  0  0  0  0  0  0
   -0.3286   -3.9576   30.6474 H   0  0  0  0  0  0  0  0  0  0  0  0
    1.9975   -2.3705   30.8159 H   0  0  0  0  0  0  0  0  0  0  0  0
    3.1277   -0.4047   31.7246 H   0  0  0  0  0  0  0  0  0  0  0  0
  1  2  1  0
  2  3  1  0
  3  4  2  0
  3  5  1  0
  5  6  1  0
  6  7  2  0
  7  8  1  0
  8  9  2  0
  9 10  1  0
 10 11  1  0
 11 12  2  0
 12 13  1  0
 13 14  2  0
 14 15  1  0
 15 16  2  0
 16 17  1  0
 16 18  1  0
 18 19  1  0
 19 20  1  0
 20 21  1  0
 21 22  2  0
 22 23  1  0
 23 24  2  0
 23 25  1  0
 25 26  1  0
 26 27  1  0
 27 28  2  0
 28 29  1  0
 29 30  1  0
  9 31  1  0
 31 32  2  0
 32  6  1  0
 19 10  2  0
 30 21  1  0
 18 13  1  0
 29 25  2  0
  1 33  1  0
  1 34  1  0
  1 35  1  0
  2 36  1  0
  5 37  1  0
  5 38  1  0
  7 39  1  0
  8 40  1  0
 11 41  1  0
 12 42  1  0
 17 43  1  0
 17 44  1  0
 27 45  1  0
 28 46  1  0
 30 47  1  0
 31 48  1  0
 32 49  1  0
M  END
>  <Energy>  (725) 
48.29302480494119

>  <compound_id>  (725) 
3685

>  <target_id>  (725) 
1

>  <reference_id>  (725) 
59

>  <inspiration_ids>  (725) 
[128, 59]

>  <energy_score>  (725) 
-32.63677362555052

>  <distance_score>  (725) 
1.4052363953234595

>  <path>  (725) 
/opt/xchem-fragalysis-2/maxwin/BulkDock/SCRATCH/505734/C3685-P59/C3685-P59.minimised.mol

>  <scratch_subdir>  (725) 
/opt/xchem-fragalysis-2/maxwin/BulkDock/SCRATCH/505734/C3685-P59

>  <fragmenstein_runtime>  (725) 
4.218920707702637

>  <fragmenstein_outcome>  (725) 
too moved

>  <fragmenstein_mode>  (725) 
expansion

>  <fragmenstein_error>  (725) 


$$$$
C3685-P128
     RDKit          2D

  0  0  0  0  0  0  0  0  0  0999 V2000
M  END
>  <compound_id>  (726) 
3685

>  <target_id>  (726) 
1

>  <reference_id>  (726) 
128

>  <inspiration_ids>  (726) 
[128, 70]

>  <energy_score>  (726) 
nan

>  <distance_score>  (726) 
nan

>  <path>  (726) 
/opt/xchem-fragalysis-2/maxwin/BulkDock/SCRATCH/505734/C3685-P128/C3685-P128.minimised.mol

>  <scratch_subdir>  (726) 
/opt/xchem-fragalysis-2/maxwin/BulkDock/SCRATCH/505734/C3685-P128

>  <fragmenstein_runtime>  (726) 
0.687978982925415

>  <fragmenstein_outcome>  (726) 
too distant

>  <fragmenstein_mode>  (726) 
expansion

>  <fragmenstein_error>  (726) 
DistanceError: hit1

$$$$
C3687-P128
     RDKit          3D

 72 77  0  0  0  0  0  0  0  0999 V2000
    4.8362    2.1366   32.1935 C   0  0  0  0  0  0  0  0  0  0  0  0
    4.8889    0.9474   31.3934 N   0  0  0  0  0  0  0  0  0  0  0  0
    5.9874    0.0854   31.0591 C   0  0  0  0  0  0  0  0  0  0  0  0
    7.1272    0.0932   31.4262 O   0  0  0  0  0  0  0  0  0  0  0  0
    5.5390   -0.9753   30.0467 C   0  0  0  0  0  0  0  0  0  0  0  0
    4.4369   -1.8850   30.5418 C   0  0  0  0  0  0  0  0  0  0  0  0
    4.5642   -2.5631   31.7600 C   0  0  0  0  0  0  0  0  0  0  0  0
    3.5399   -3.3943   32.2099 C   0  0  0  0  0  0  0  0  0  0  0  0
    2.3809   -3.5762   31.4425 C   0  0  0  0  0  0  0  0  0  0  0  0
    1.2727   -4.3612   32.0015 C   0  0  0  0  0  0  0  0  0  0  0  0
    0.6008   -3.9162   33.2184 C   0  0  0  0  0  0  0  0  0  0  0  0
   -0.3738   -4.6087   33.8422 C   0  0  0  0  0  0  0  0  0  0  0  0
   -1.0315   -4.1770   34.9885 N   0  0  0  0  0  0  0  0  0  0  0  0
   -0.8252   -2.9283   35.7335 C   0  0  0  0  0  0  0  0  0  0  0  0
    0.0107   -3.1463   37.0163 C   0  0  0  0  0  0  0  0  0  0  0  0
   -0.8699   -4.3082   38.1462 S   0  0  0  0  0  0  0  0  0  0  0  0
    0.1946   -1.5821   37.8960 Cl  0  0  0  0  0  0  0  0  0  0  0  0
    1.4521   -3.6165   36.6057 C   0  0  0  0  0  0  0  0  0  0  0  0
    2.1134   -2.8791   35.9240 O   0  0  0  0  0  0  0  0  0  0  0  0
    1.7205   -4.9507   37.0801 N   0  0  0  0  0  0  0  0  0  0  0  0
    2.8280   -5.8606   36.8068 C   0  0  0  0  0  0  0  0  0  0  0  0
    2.7548   -7.0934   37.7999 C   0  0  0  0  0  0  0  0  0  0  0  0
    1.6401   -7.3798   38.4890 N   0  0  0  0  0  0  0  0  0  0  0  0
    1.9725   -8.5547   39.0503 N   0  0  0  0  0  0  0  0  0  0  0  0
    3.2693   -8.8927   38.7749 C   0  0  0  0  0  0  0  0  0  0  0  0
    3.9096  -10.0995   39.2049 C   0  0  0  0  0  0  0  0  0  0  0  0
    3.5481  -10.9347   40.2468 C   0  0  0  0  0  0  0  0  0  0  0  0
    4.3393  -12.1194   40.2887 C   0  0  0  0  0  0  0  0  0  0  0  0
    5.3089  -12.1309   39.3139 C   0  0  0  0  0  0  0  0  0  0  0  0
    5.2763  -10.7151   38.3644 S   0  0  0  0  0  0  0  0  0  0  0  0
    3.7789   -7.9879   37.9665 N   0  0  0  0  0  0  0  0  0  0  0  0
    4.2304   -5.2363   36.6462 C   0  0  0  0  0  0  0  0  0  0  0  0
    4.4426   -6.1325   35.4085 C   0  0  0  0  0  0  0  0  0  0  0  0
    2.9160   -6.3035   35.3222 C   0  0  0  0  0  0  0  0  0  0  0  0
   -0.7419   -5.8674   33.2534 C   0  0  0  0  0  0  0  0  0  0  0  0
   -1.5690   -6.8113   33.6485 N   0  0  0  0  0  0  0  0  0  0  0  0
   -1.5788   -7.7952   32.6923 N   0  0  0  0  0  0  0  0  0  0  0  0
   -0.7436   -7.4544   31.7424 C   0  0  0  0  0  0  0  0  0  0  0  0
   -0.4607   -8.1771   30.6350 N   0  0  0  0  0  0  0  0  0  0  0  0
   -0.1487   -6.2449   32.0596 N   0  0  0  0  0  0  0  0  0  0  0  0
    0.8503   -5.5049   31.4290 C   0  0  0  0  0  0  0  0  0  0  0  0
    2.2575   -2.9178   30.2179 C   0  0  0  0  0  0  0  0  0  0  0  0
    3.2815   -2.0798   29.7701 C   0  0  0  0  0  0  0  0  0  0  0  0
    3.9630    2.0793   32.8467 H   0  0  0  0  0  0  0  0  0  0  0  0
    4.7426    2.9973   31.5273 H   0  0  0  0  0  0  0  0  0  0  0  0
    5.7504    2.2248   32.7847 H   0  0  0  0  0  0  0  0  0  0  0  0
    4.0861    0.6940   30.8280 H   0  0  0  0  0  0  0  0  0  0  0  0
    6.4048   -1.5942   29.7802 H   0  0  0  0  0  0  0  0  0  0  0  0
    5.2356   -0.4515   29.1316 H   0  0  0  0  0  0  0  0  0  0  0  0
    5.4517   -2.4324   32.3779 H   0  0  0  0  0  0  0  0  0  0  0  0
    3.6421   -3.8715   33.1825 H   0  0  0  0  0  0  0  0  0  0  0  0
    0.9330   -2.9548   33.5989 H   0  0  0  0  0  0  0  0  0  0  0  0
   -2.0204   -4.4747   34.9585 H   0  0  0  0  0  0  0  0  0  0  0  0
   -1.8148   -2.5337   36.0006 H   0  0  0  0  0  0  0  0  0  0  0  0
   -0.3745   -2.1598   35.0957 H   0  0  0  0  0  0  0  0  0  0  0  0
   -1.1510   -5.2141   37.1916 H   0  0  0  0  0  0  0  0  0  0  0  0
    0.9669   -5.2390   37.7066 H   0  0  0  0  0  0  0  0  0  0  0  0
    1.2642   -9.0906   39.5391 H   0  0  0  0  0  0  0  0  0  0  0  0
    2.7347  -10.7321   40.9323 H   0  0  0  0  0  0  0  0  0  0  0  0
    4.2162  -12.9353   40.9882 H   0  0  0  0  0  0  0  0  0  0  0  0
    6.0348  -12.9096   39.1246 H   0  0  0  0  0  0  0  0  0  0  0  0
    4.2501   -4.1680   36.4071 H   0  0  0  0  0  0  0  0  0  0  0  0
    4.9367   -5.4068   37.4648 H   0  0  0  0  0  0  0  0  0  0  0  0
    4.9129   -5.6464   34.5498 H   0  0  0  0  0  0  0  0  0  0  0  0
    4.9804   -7.0633   35.6209 H   0  0  0  0  0  0  0  0  0  0  0  0
    2.5742   -7.3166   35.0883 H   0  0  0  0  0  0  0  0  0  0  0  0
    2.4529   -5.6158   34.6104 H   0  0  0  0  0  0  0  0  0  0  0  0
   -0.6366   -9.1770   30.7701 H   0  0  0  0  0  0  0  0  0  0  0  0
    0.4721   -8.0936   30.2469 H   0  0  0  0  0  0  0  0  0  0  0  0
    1.2652   -5.9029   30.5137 H   0  0  0  0  0  0  0  0  0  0  0  0
    1.3541   -3.0209   29.6199 H   0  0  0  0  0  0  0  0  0  0  0  0
    3.1607   -1.5699   28.8159 H   0  0  0  0  0  0  0  0  0  0  0  0
  1  2  1  0
  2  3  1  0
  3  4  2  0
  3  5  1  0
  5  6  1  0
  6  7  2  0
  7  8  1  0
  8  9  2  0
  9 10  1  0
 10 11  1  0
 11 12  2  0
 12 13  1  0
 13 14  1  0
 14 15  1  0
 15 16  1  0
 15 17  1  0
 15 18  1  0
 18 19  2  0
 18 20  1  0
 20 21  1  0
 21 22  1  0
 22 23  2  0
 23 24  1  0
 24 25  1  0
 25 26  1  0
 26 27  2  0
 27 28  1  0
 28 29  2  0
 29 30  1  0
 25 31  2  0
 21 32  1  0
 32 33  1  0
 33 34  1  0
 12 35  1  0
 35 36  2  0
 36 37  1  0
 37 38  2  0
 38 39  1  0
 38 40  1  0
 40 41  1  0
  9 42  1  0
 42 43  2  0
 43  6  1  0
 41 10  2  0
 34 21  1  0
 40 35  1  0
 31 22  1  0
 30 26  1  0
  1 44  1  0
  1 45  1  0
  1 46  1  0
  2 47  1  0
  5 48  1  0
  5 49  1  0
  7 50  1  0
  8 51  1  0
 11 52  1  0
 13 53  1  0
 14 54  1  0
 14 55  1  0
 16 56  1  0
 20 57  1  0
 24 58  1  0
 27 59  1  0
 28 60  1  0
 29 61  1  0
 32 62  1  0
 32 63  1  0
 33 64  1  0
 33 65  1  0
 34 66  1  0
 34 67  1  0
 39 68  1  0
 39 69  1  0
 41 70  1  0
 42 71  1  0
 43 72  1  0
M  END
>  <Energy>  (727) 
174.63597172691905

>  <compound_id>  (727) 
3687

>  <target_id>  (727) 
1

>  <reference_id>  (727) 
128

>  <inspiration_ids>  (727) 
[128, 78]

>  <energy_score>  (727) 
-89.60551496630771

>  <distance_score>  (727) 
3.018902730440986

>  <path>  (727) 
/opt/xchem-fragalysis-2/maxwin/BulkDock/SCRATCH/505734/C3687-P128/C3687-P128.minimised.mol

>  <scratch_subdir>  (727) 
/opt/xchem-fragalysis-2/maxwin/BulkDock/SCRATCH/505734/C3687-P128

>  <fragmenstein_runtime>  (727) 
22.584962606430054

>  <fragmenstein_outcome>  (727) 
too moved

>  <fragmenstein_mode>  (727) 
expansion

>  <fragmenstein_error>  (727) 


$$$$
C3687-P78
     RDKit          3D

 72 77  0  0  0  0  0  0  0  0999 V2000
    4.9169    2.3537   31.4206 C   0  0  0  0  0  0  0  0  0  0  0  0
    5.4934    1.0676   31.6867 N   0  0  0  0  0  0  0  0  0  0  0  0
    6.3666    0.2455   30.8970 C   0  0  0  0  0  0  0  0  0  0  0  0
    6.9015    0.4568   29.8466 O   0  0  0  0  0  0  0  0  0  0  0  0
    6.6412   -1.0788   31.6198 C   0  0  0  0  0  0  0  0  0  0  0  0
    5.4126   -1.9381   31.8172 C   0  0  0  0  0  0  0  0  0  0  0  0
    5.0924   -2.4321   33.0866 C   0  0  0  0  0  0  0  0  0  0  0  0
    3.9492   -3.2098   33.2685 C   0  0  0  0  0  0  0  0  0  0  0  0
    3.1157   -3.5188   32.1846 C   0  0  0  0  0  0  0  0  0  0  0  0
    1.8457   -4.2255   32.4094 C   0  0  0  0  0  0  0  0  0  0  0  0
    0.5559   -3.5584   32.2074 C   0  0  0  0  0  0  0  0  0  0  0  0
   -0.6265   -4.0660   32.6255 C   0  0  0  0  0  0  0  0  0  0  0  0
   -1.8190   -3.3328   32.6952 N   0  0  0  0  0  0  0  0  0  0  0  0
   -1.8985   -1.8526   32.7539 C   0  0  0  0  0  0  0  0  0  0  0  0
   -1.7719   -1.2194   34.1686 C   0  0  0  0  0  0  0  0  0  0  0  0
   -3.2818   -1.5195   35.1936 S   0  0  0  0  0  0  0  0  0  0  0  0
   -1.6808    0.5902   33.9833 Cl  0  0  0  0  0  0  0  0  0  0  0  0
   -0.4274   -1.6477   34.8736 C   0  0  0  0  0  0  0  0  0  0  0  0
    0.6048   -1.3205   34.3515 O   0  0  0  0  0  0  0  0  0  0  0  0
   -0.6752   -2.4648   36.0395 N   0  0  0  0  0  0  0  0  0  0  0  0
    0.2488   -3.0704   37.0057 C   0  0  0  0  0  0  0  0  0  0  0  0
   -0.5534   -3.6382   38.2523 C   0  0  0  0  0  0  0  0  0  0  0  0
   -1.8769   -3.4662   38.3953 N   0  0  0  0  0  0  0  0  0  0  0  0
   -2.1052   -4.1530   39.5328 N   0  0  0  0  0  0  0  0  0  0  0  0
   -0.9642   -4.7178   40.0248 C   0  0  0  0  0  0  0  0  0  0  0  0
   -0.9029   -5.5569   41.1847 C   0  0  0  0  0  0  0  0  0  0  0  0
   -1.9477   -5.9835   41.9856 C   0  0  0  0  0  0  0  0  0  0  0  0
   -1.5137   -6.8279   43.0509 C   0  0  0  0  0  0  0  0  0  0  0  0
   -0.1514   -7.0183   43.0337 C   0  0  0  0  0  0  0  0  0  0  0  0
    0.5943   -6.1863   41.7413 S   0  0  0  0  0  0  0  0  0  0  0  0
    0.0362   -4.3931   39.2342 N   0  0  0  0  0  0  0  0  0  0  0  0
    1.4952   -2.2376   37.3891 C   0  0  0  0  0  0  0  0  0  0  0  0
    2.3473   -3.5137   37.2343 C   0  0  0  0  0  0  0  0  0  0  0  0
    1.2144   -4.1078   36.3817 C   0  0  0  0  0  0  0  0  0  0  0  0
   -0.5967   -5.4145   33.1238 C   0  0  0  0  0  0  0  0  0  0  0  0
   -1.5463   -6.2580   33.4673 N   0  0  0  0  0  0  0  0  0  0  0  0
   -0.9606   -7.3368   34.0771 N   0  0  0  0  0  0  0  0  0  0  0  0
    0.3338   -7.1239   34.1096 C   0  0  0  0  0  0  0  0  0  0  0  0
    1.2602   -7.8129   34.8198 N   0  0  0  0  0  0  0  0  0  0  0  0
    0.6311   -5.9958   33.3733 N   0  0  0  0  0  0  0  0  0  0  0  0
    1.8449   -5.4320   33.0070 C   0  0  0  0  0  0  0  0  0  0  0  0
    3.4433   -3.0417   30.9138 C   0  0  0  0  0  0  0  0  0  0  0  0
    4.5879   -2.2638   30.7309 C   0  0  0  0  0  0  0  0  0  0  0  0
    5.4286    2.8201   30.5757 H   0  0  0  0  0  0  0  0  0  0  0  0
    5.0144    2.9724   32.3152 H   0  0  0  0  0  0  0  0  0  0  0  0
    3.8599    2.2152   31.1814 H   0  0  0  0  0  0  0  0  0  0  0  0
    5.1627    0.5305   32.4815 H   0  0  0  0  0  0  0  0  0  0  0  0
    7.1156   -0.8418   32.5803 H   0  0  0  0  0  0  0  0  0  0  0  0
    7.3761   -1.6506   31.0398 H   0  0  0  0  0  0  0  0  0  0  0  0
    5.7169   -2.2010   33.9469 H   0  0  0  0  0  0  0  0  0  0  0  0
    3.6961   -3.5395   34.2724 H   0  0  0  0  0  0  0  0  0  0  0  0
    0.6229   -2.5451   31.8224 H   0  0  0  0  0  0  0  0  0  0  0  0
   -2.4525   -3.7819   33.3771 H   0  0  0  0  0  0  0  0  0  0  0  0
   -2.8672   -1.5726   32.3190 H   0  0  0  0  0  0  0  0  0  0  0  0
   -1.1541   -1.4184   32.0771 H   0  0  0  0  0  0  0  0  0  0  0  0
   -3.4121   -2.8236   34.8931 H   0  0  0  0  0  0  0  0  0  0  0  0
   -1.6758   -2.4615   36.2414 H   0  0  0  0  0  0  0  0  0  0  0  0
   -3.0597   -4.2805   39.8580 H   0  0  0  0  0  0  0  0  0  0  0  0
   -2.9867   -5.7221   41.8227 H   0  0  0  0  0  0  0  0  0  0  0  0
   -2.1685   -7.2756   43.7890 H   0  0  0  0  0  0  0  0  0  0  0  0
    0.4447   -7.6092   43.7158 H   0  0  0  0  0  0  0  0  0  0  0  0
    1.7713   -1.4492   36.6807 H   0  0  0  0  0  0  0  0  0  0  0  0
    1.4984   -1.8014   38.3931 H   0  0  0  0  0  0  0  0  0  0  0  0
    3.3049   -3.3806   36.7247 H   0  0  0  0  0  0  0  0  0  0  0  0
    2.5242   -4.0471   38.1747 H   0  0  0  0  0  0  0  0  0  0  0  0
    0.9944   -5.1625   36.5668 H   0  0  0  0  0  0  0  0  0  0  0  0
    1.3831   -3.9655   35.3134 H   0  0  0  0  0  0  0  0  0  0  0  0
    0.8016   -8.4583   35.4704 H   0  0  0  0  0  0  0  0  0  0  0  0
    1.9226   -7.2460   35.3455 H   0  0  0  0  0  0  0  0  0  0  0  0
    2.7425   -5.9768   33.2684 H   0  0  0  0  0  0  0  0  0  0  0  0
    2.8021   -3.2509   30.0603 H   0  0  0  0  0  0  0  0  0  0  0  0
    4.8234   -1.8974   29.7320 H   0  0  0  0  0  0  0  0  0  0  0  0
  1  2  1  0
  2  3  1  0
  3  4  2  0
  3  5  1  0
  5  6  1  0
  6  7  2  0
  7  8  1  0
  8  9  2  0
  9 10  1  0
 10 11  1  0
 11 12  2  0
 12 13  1  0
 13 14  1  0
 14 15  1  0
 15 16  1  0
 15 17  1  0
 15 18  1  0
 18 19  2  0
 18 20  1  0
 20 21  1  0
 21 22  1  0
 22 23  2  0
 23 24  1  0
 24 25  1  0
 25 26  1  0
 26 27  2  0
 27 28  1  0
 28 29  2  0
 29 30  1  0
 25 31  2  0
 21 32  1  0
 32 33  1  0
 33 34  1  0
 12 35  1  0
 35 36  2  0
 36 37  1  0
 37 38  2  0
 38 39  1  0
 38 40  1  0
 40 41  1  0
  9 42  1  0
 42 43  2  0
 43  6  1  0
 41 10  2  0
 34 21  1  0
 40 35  1  0
 31 22  1  0
 30 26  1  0
  1 44  1  0
  1 45  1  0
  1 46  1  0
  2 47  1  0
  5 48  1  0
  5 49  1  0
  7 50  1  0
  8 51  1  0
 11 52  1  0
 13 53  1  0
 14 54  1  0
 14 55  1  0
 16 56  1  0
 20 57  1  0
 24 58  1  0
 27 59  1  0
 28 60  1  0
 29 61  1  0
 32 62  1  0
 32 63  1  0
 33 64  1  0
 33 65  1  0
 34 66  1  0
 34 67  1  0
 39 68  1  0
 39 69  1  0
 41 70  1  0
 42 71  1  0
 43 72  1  0
M  END
>  <Energy>  (728) 
179.5738992444829

>  <compound_id>  (728) 
3687

>  <target_id>  (728) 
1

>  <reference_id>  (728) 
78

>  <inspiration_ids>  (728) 
[128, 78]

>  <energy_score>  (728) 
-84.66758744874411

>  <distance_score>  (728) 
3.200225878293385

>  <path>  (728) 
/opt/xchem-fragalysis-2/maxwin/BulkDock/SCRATCH/505734/C3687-P78/C3687-P78.minimised.mol

>  <scratch_subdir>  (728) 
/opt/xchem-fragalysis-2/maxwin/BulkDock/SCRATCH/505734/C3687-P78

>  <fragmenstein_runtime>  (728) 
14.580518007278442

>  <fragmenstein_outcome>  (728) 
too moved

>  <fragmenstein_mode>  (728) 
expansion

>  <fragmenstein_error>  (728) 


$$$$
C3689-P128
     RDKit          3D

 50 53  0  0  0  0  0  0  0  0999 V2000
    2.0427    2.7106   34.1348 C   0  0  0  0  0  0  0  0  0  0  0  0
    2.7861    1.5282   34.4597 N   0  0  0  0  0  0  0  0  0  0  0  0
    4.1381    1.0040   33.9059 C   0  0  0  0  0  0  0  0  0  0  0  0
    4.8896    1.4927   33.1576 O   0  0  0  0  0  0  0  0  0  0  0  0
    4.3936   -0.3573   34.5582 C   0  0  0  0  0  0  0  0  0  0  0  0
    3.4741   -1.4465   34.0574 C   0  0  0  0  0  0  0  0  0  0  0  0
    2.8128   -2.2906   34.9553 C   0  0  0  0  0  0  0  0  0  0  0  0
    1.9491   -3.2929   34.4949 C   0  0  0  0  0  0  0  0  0  0  0  0
    1.7426   -3.4936   33.1251 C   0  0  0  0  0  0  0  0  0  0  0  0
    0.8254   -4.5329   32.5841 C   0  0  0  0  0  0  0  0  0  0  0  0
    0.4958   -5.6424   33.2800 C   0  0  0  0  0  0  0  0  0  0  0  0
   -0.2445   -6.6400   32.6494 N   0  0  0  0  0  0  0  0  0  0  0  0
   -0.9730   -7.6957   33.1501 C   0  0  0  0  0  0  0  0  0  0  0  0
   -1.1970   -7.8757   34.4742 N   0  0  0  0  0  0  0  0  0  0  0  0
   -1.4361   -8.4084   32.1439 N   0  0  0  0  0  0  0  0  0  0  0  0
   -1.0953   -7.7866   30.9635 N   0  0  0  0  0  0  0  0  0  0  0  0
   -0.4414   -6.6913   31.2789 C   0  0  0  0  0  0  0  0  0  0  0  0
   -0.1392   -5.5137   30.5380 C   0  0  0  0  0  0  0  0  0  0  0  0
    0.1877   -4.4113   31.2508 C   0  0  0  0  0  0  0  0  0  0  0  0
   -0.6138   -3.1502   31.0252 C   0  0  0  0  0  0  0  0  0  0  0  0
   -0.1528   -2.3658   29.8771 N   0  0  0  0  0  0  0  0  0  0  0  0
   -1.3456   -1.2182   29.4617 S   0  0  0  0  0  0  0  0  0  0  0  0
   -2.0372   -0.8401   30.6783 O   0  0  0  0  0  0  0  0  0  0  0  0
   -2.0114   -1.7868   28.3238 O   0  0  0  0  0  0  0  0  0  0  0  0
   -0.5910    0.2525   28.9478 C   0  0  0  0  0  0  0  0  0  0  0  0
    0.3844    1.0638   29.4840 C   0  0  0  0  0  0  0  0  0  0  0  0
    0.5232    2.2333   28.6887 C   0  0  0  0  0  0  0  0  0  0  0  0
   -0.2384    2.3195   27.6011 N   0  0  0  0  0  0  0  0  0  0  0  0
   -1.2297    0.9928   27.5554 S   0  0  0  0  0  0  0  0  0  0  0  0
    2.4466   -2.6677   32.2325 C   0  0  0  0  0  0  0  0  0  0  0  0
    3.2944   -1.6559   32.6884 C   0  0  0  0  0  0  0  0  0  0  0  0
    1.6994    3.1746   35.0616 H   0  0  0  0  0  0  0  0  0  0  0  0
    1.1837    2.4216   33.5249 H   0  0  0  0  0  0  0  0  0  0  0  0
    2.6791    3.3986   33.5741 H   0  0  0  0  0  0  0  0  0  0  0  0
    2.3516    0.8101   35.0287 H   0  0  0  0  0  0  0  0  0  0  0  0
    4.3088   -0.2354   35.6450 H   0  0  0  0  0  0  0  0  0  0  0  0
    5.4313   -0.6503   34.3567 H   0  0  0  0  0  0  0  0  0  0  0  0
    2.9479   -2.1676   36.0286 H   0  0  0  0  0  0  0  0  0  0  0  0
    1.4286   -3.8915   35.2378 H   0  0  0  0  0  0  0  0  0  0  0  0
    0.7823   -5.8354   34.3038 H   0  0  0  0  0  0  0  0  0  0  0  0
   -1.4577   -8.8522   34.7031 H   0  0  0  0  0  0  0  0  0  0  0  0
   -0.4991   -7.5789   35.1462 H   0  0  0  0  0  0  0  0  0  0  0  0
   -0.6114   -5.4235   29.5670 H   0  0  0  0  0  0  0  0  0  0  0  0
   -0.6001   -2.5202   31.9229 H   0  0  0  0  0  0  0  0  0  0  0  0
   -1.6602   -3.4504   30.8748 H   0  0  0  0  0  0  0  0  0  0  0  0
   -0.0371   -2.9348   29.0328 H   0  0  0  0  0  0  0  0  0  0  0  0
    0.9295    0.8498   30.3929 H   0  0  0  0  0  0  0  0  0  0  0  0
    1.1997    3.0576   28.8798 H   0  0  0  0  0  0  0  0  0  0  0  0
    2.3532   -2.7974   31.1558 H   0  0  0  0  0  0  0  0  0  0  0  0
    3.8197   -1.0392   31.9596 H   0  0  0  0  0  0  0  0  0  0  0  0
  1  2  1  0
  2  3  1  0
  3  4  2  0
  3  5  1  0
  5  6  1  0
  6  7  2  0
  7  8  1  0
  8  9  2  0
  9 10  1  0
 10 11  2  0
 11 12  1  0
 12 13  1  0
 13 14  1  0
 13 15  2  0
 15 16  1  0
 16 17  2  0
 17 18  1  0
 18 19  2  0
 19 20  1  0
 20 21  1  0
 21 22  1  0
 22 23  2  0
 22 24  2  0
 22 25  1  0
 25 26  2  0
 26 27  1  0
 27 28  2  0
 28 29  1  0
  9 30  1  0
 30 31  2  0
 31  6  1  0
 19 10  1  0
 29 25  1  0
 17 12  1  0
  1 32  1  0
  1 33  1  0
  1 34  1  0
  2 35  1  0
  5 36  1  0
  5 37  1  0
  7 38  1  0
  8 39  1  0
 11 40  1  0
 14 41  1  0
 14 42  1  0
 18 43  1  0
 20 44  1  0
 20 45  1  0
 21 46  1  0
 26 47  1  0
 27 48  1  0
 30 49  1  0
 31 50  1  0
M  END
>  <Energy>  (729) 
5.1637537813766388

>  <compound_id>  (729) 
3689

>  <target_id>  (729) 
1

>  <reference_id>  (729) 
128

>  <inspiration_ids>  (729) 
[128, 130]

>  <energy_score>  (729) 
-39.497099181263025

>  <distance_score>  (729) 
0.9877176519332159

>  <path>  (729) 
/opt/xchem-fragalysis-2/maxwin/BulkDock/SCRATCH/505734/C3689-P128/C3689-P128.minimised.mol

>  <scratch_subdir>  (729) 
/opt/xchem-fragalysis-2/maxwin/BulkDock/SCRATCH/505734/C3689-P128

>  <fragmenstein_runtime>  (729) 
3.9631154537200928

>  <fragmenstein_outcome>  (729) 
acceptable

>  <fragmenstein_mode>  (729) 
expansion

>  <fragmenstein_error>  (729) 


$$$$
C3689-P130
     RDKit          3D

 50 53  0  0  0  0  0  0  0  0999 V2000
    7.9178   -0.0349   36.6063 C   0  0  0  0  0  0  0  0  0  0  0  0
    6.6165   -0.0481   36.0041 N   0  0  0  0  0  0  0  0  0  0  0  0
    5.7786   -1.2296   35.4365 C   0  0  0  0  0  0  0  0  0  0  0  0
    5.9891   -2.3781   35.4438 O   0  0  0  0  0  0  0  0  0  0  0  0
    4.5189   -0.5881   34.8377 C   0  0  0  0  0  0  0  0  0  0  0  0
    3.5570   -1.5784   34.2236 C   0  0  0  0  0  0  0  0  0  0  0  0
    2.4575   -2.0486   34.9476 C   0  0  0  0  0  0  0  0  0  0  0  0
    1.5752   -2.9779   34.3865 C   0  0  0  0  0  0  0  0  0  0  0  0
    1.7904   -3.4843   33.1016 C   0  0  0  0  0  0  0  0  0  0  0  0
    0.8667   -4.4622   32.4757 C   0  0  0  0  0  0  0  0  0  0  0  0
    0.4174   -5.5041   33.2107 C   0  0  0  0  0  0  0  0  0  0  0  0
   -0.3337   -6.5057   32.6040 N   0  0  0  0  0  0  0  0  0  0  0  0
   -1.0224   -7.5830   33.1191 C   0  0  0  0  0  0  0  0  0  0  0  0
   -1.1970   -7.7972   34.4449 N   0  0  0  0  0  0  0  0  0  0  0  0
   -1.4775   -8.3179   32.1259 N   0  0  0  0  0  0  0  0  0  0  0  0
   -1.1642   -7.6974   30.9391 N   0  0  0  0  0  0  0  0  0  0  0  0
   -0.5288   -6.5864   31.2391 C   0  0  0  0  0  0  0  0  0  0  0  0
   -0.1396   -5.4646   30.4682 C   0  0  0  0  0  0  0  0  0  0  0  0
    0.4189   -4.3845   31.0600 C   0  0  0  0  0  0  0  0  0  0  0  0
    0.5033   -3.0346   30.3746 C   0  0  0  0  0  0  0  0  0  0  0  0
   -0.5181   -2.8963   29.3564 N   0  0  0  0  0  0  0  0  0  0  0  0
   -1.6232   -1.6579   29.4511 S   0  0  0  0  0  0  0  0  0  0  0  0
   -2.1187   -1.6231   30.8118 O   0  0  0  0  0  0  0  0  0  0  0  0
   -2.4849   -1.8092   28.3122 O   0  0  0  0  0  0  0  0  0  0  0  0
   -0.8342   -0.1138   29.2338 C   0  0  0  0  0  0  0  0  0  0  0  0
   -0.0537    0.6976   30.0316 C   0  0  0  0  0  0  0  0  0  0  0  0
    0.2722    1.8955   29.3347 C   0  0  0  0  0  0  0  0  0  0  0  0
   -0.1847    2.0132   28.0915 N   0  0  0  0  0  0  0  0  0  0  0  0
   -1.1053    0.6810   27.7497 S   0  0  0  0  0  0  0  0  0  0  0  0
    2.9181   -3.0387   32.3974 C   0  0  0  0  0  0  0  0  0  0  0  0
    3.7776   -2.0805   32.9395 C   0  0  0  0  0  0  0  0  0  0  0  0
    7.8274    0.3609   37.6201 H   0  0  0  0  0  0  0  0  0  0  0  0
    8.5679    0.6128   36.0143 H   0  0  0  0  0  0  0  0  0  0  0  0
    8.3193   -1.0501   36.6322 H   0  0  0  0  0  0  0  0  0  0  0  0
    6.0985    0.8166   35.8980 H   0  0  0  0  0  0  0  0  0  0  0  0
    4.8242    0.1336   34.0696 H   0  0  0  0  0  0  0  0  0  0  0  0
    4.0066   -0.0238   35.6269 H   0  0  0  0  0  0  0  0  0  0  0  0
    2.2692   -1.6888   35.9575 H   0  0  0  0  0  0  0  0  0  0  0  0
    0.7096   -3.2854   34.9700 H   0  0  0  0  0  0  0  0  0  0  0  0
    0.6316   -5.6335   34.2634 H   0  0  0  0  0  0  0  0  0  0  0  0
   -1.4165   -8.7831   34.6482 H   0  0  0  0  0  0  0  0  0  0  0  0
   -0.5136   -7.4414   35.1036 H   0  0  0  0  0  0  0  0  0  0  0  0
   -0.4663   -5.4311   29.4388 H   0  0  0  0  0  0  0  0  0  0  0  0
    1.4807   -2.9167   29.8950 H   0  0  0  0  0  0  0  0  0  0  0  0
    0.3997   -2.2321   31.1123 H   0  0  0  0  0  0  0  0  0  0  0  0
   -0.3396   -3.1894   28.3961 H   0  0  0  0  0  0  0  0  0  0  0  0
    0.2381    0.4595   31.0450 H   0  0  0  0  0  0  0  0  0  0  0  0
    0.8599    2.7196   29.7207 H   0  0  0  0  0  0  0  0  0  0  0  0
    3.1644   -3.4484   31.4208 H   0  0  0  0  0  0  0  0  0  0  0  0
    4.6494   -1.7647   32.3695 H   0  0  0  0  0  0  0  0  0  0  0  0
  1  2  1  0
  2  3  1  0
  3  4  2  0
  3  5  1  0
  5  6  1  0
  6  7  2  0
  7  8  1  0
  8  9  2  0
  9 10  1  0
 10 11  2  0
 11 12  1  0
 12 13  1  0
 13 14  1  0
 13 15  2  0
 15 16  1  0
 16 17  2  0
 17 18  1  0
 18 19  2  0
 19 20  1  0
 20 21  1  0
 21 22  1  0
 22 23  2  0
 22 24  2  0
 22 25  1  0
 25 26  2  0
 26 27  1  0
 27 28  2  0
 28 29  1  0
  9 30  1  0
 30 31  2  0
 31  6  1  0
 19 10  1  0
 29 25  1  0
 17 12  1  0
  1 32  1  0
  1 33  1  0
  1 34  1  0
  2 35  1  0
  5 36  1  0
  5 37  1  0
  7 38  1  0
  8 39  1  0
 11 40  1  0
 14 41  1  0
 14 42  1  0
 18 43  1  0
 20 44  1  0
 20 45  1  0
 21 46  1  0
 26 47  1  0
 27 48  1  0
 30 49  1  0
 31 50  1  0
M  END
>  <Energy>  (730) 
-10.700794774567292

>  <compound_id>  (730) 
3689

>  <target_id>  (730) 
1

>  <reference_id>  (730) 
130

>  <inspiration_ids>  (730) 
[128, 130]

>  <energy_score>  (730) 
-55.361647737205075

>  <distance_score>  (730) 
2.043397487518855

>  <path>  (730) 
/opt/xchem-fragalysis-2/maxwin/BulkDock/SCRATCH/505734/C3689-P130/C3689-P130.minimised.mol

>  <scratch_subdir>  (730) 
/opt/xchem-fragalysis-2/maxwin/BulkDock/SCRATCH/505734/C3689-P130

>  <fragmenstein_runtime>  (730) 
5.337788820266724

>  <fragmenstein_outcome>  (730) 
too moved

>  <fragmenstein_mode>  (730) 
expansion

>  <fragmenstein_error>  (730) 


$$$$
C3690-P128
     RDKit          3D

 55 58  0  0  0  0  0  0  0  0999 V2000
    4.5117    2.3016   32.3103 C   0  0  0  0  0  0  0  0  0  0  0  0
    4.1021    1.3721   33.3253 N   0  0  0  0  0  0  0  0  0  0  0  0
    4.8725    0.5327   34.1999 C   0  0  0  0  0  0  0  0  0  0  0  0
    6.0521    0.3337   34.2541 O   0  0  0  0  0  0  0  0  0  0  0  0
    3.9441   -0.1995   35.1772 C   0  0  0  0  0  0  0  0  0  0  0  0
    3.1311   -1.2942   34.5243 C   0  0  0  0  0  0  0  0  0  0  0  0
    1.7412   -1.3479   34.6917 C   0  0  0  0  0  0  0  0  0  0  0  0
    0.9901   -2.3572   34.0829 C   0  0  0  0  0  0  0  0  0  0  0  0
    1.6213   -3.3346   33.3087 C   0  0  0  0  0  0  0  0  0  0  0  0
    0.8375   -4.3565   32.5947 C   0  0  0  0  0  0  0  0  0  0  0  0
    0.2808   -5.3458   33.3281 C   0  0  0  0  0  0  0  0  0  0  0  0
   -0.3983   -6.3795   32.6891 N   0  0  0  0  0  0  0  0  0  0  0  0
   -1.0658   -7.4909   33.1710 C   0  0  0  0  0  0  0  0  0  0  0  0
   -1.2285   -7.7603   34.4883 N   0  0  0  0  0  0  0  0  0  0  0  0
   -1.4922   -8.2094   32.1528 N   0  0  0  0  0  0  0  0  0  0  0  0
   -1.1367   -7.5785   30.9846 N   0  0  0  0  0  0  0  0  0  0  0  0
   -0.5015   -6.4765   31.3133 C   0  0  0  0  0  0  0  0  0  0  0  0
    0.0240   -5.4136   30.5374 C   0  0  0  0  0  0  0  0  0  0  0  0
    0.6443   -4.3656   31.1238 C   0  0  0  0  0  0  0  0  0  0  0  0
    1.1244   -3.1710   30.3230 C   0  0  0  0  0  0  0  0  0  0  0  0
    0.1680   -2.7688   29.3083 N   0  0  0  0  0  0  0  0  0  0  0  0
   -1.0752   -1.7188   29.6537 S   0  0  0  0  0  0  0  0  0  0  0  0
   -1.5615   -1.9924   30.9899 O   0  0  0  0  0  0  0  0  0  0  0  0
   -1.9452   -1.7535   28.5075 O   0  0  0  0  0  0  0  0  0  0  0  0
   -0.3175   -0.1173   29.6576 C   0  0  0  0  0  0  0  0  0  0  0  0
    0.3041    0.3489   30.8191 C   0  0  0  0  0  0  0  0  0  0  0  0
    0.8060    1.6476   30.8495 C   0  0  0  0  0  0  0  0  0  0  0  0
    0.6454    2.4763   29.7427 C   0  0  0  0  0  0  0  0  0  0  0  0
    1.0947    3.7581   29.8509 O   0  0  0  0  0  0  0  0  0  0  0  0
    0.0167    2.0243   28.5859 C   0  0  0  0  0  0  0  0  0  0  0  0
   -0.4655    0.7158   28.5401 C   0  0  0  0  0  0  0  0  0  0  0  0
    3.0127   -3.3021   33.1635 C   0  0  0  0  0  0  0  0  0  0  0  0
    3.7609   -2.2913   33.7681 C   0  0  0  0  0  0  0  0  0  0  0  0
    4.2670    3.3116   32.6470 H   0  0  0  0  0  0  0  0  0  0  0  0
    3.9671    2.0773   31.3910 H   0  0  0  0  0  0  0  0  0  0  0  0
    5.5877    2.2154   32.1433 H   0  0  0  0  0  0  0  0  0  0  0  0
    3.1339    1.3576   33.6221 H   0  0  0  0  0  0  0  0  0  0  0  0
    4.5530   -0.6393   35.9767 H   0  0  0  0  0  0  0  0  0  0  0  0
    3.2950    0.5421   35.6594 H   0  0  0  0  0  0  0  0  0  0  0  0
    1.2262   -0.6010   35.2927 H   0  0  0  0  0  0  0  0  0  0  0  0
   -0.0928   -2.3642   34.2012 H   0  0  0  0  0  0  0  0  0  0  0  0
    0.3443   -5.3973   34.4081 H   0  0  0  0  0  0  0  0  0  0  0  0
   -0.5343   -7.4419   35.1548 H   0  0  0  0  0  0  0  0  0  0  0  0
   -1.4333   -8.7578   34.6784 H   0  0  0  0  0  0  0  0  0  0  0  0
   -0.1470   -5.4426   29.4710 H   0  0  0  0  0  0  0  0  0  0  0  0
    1.3521   -2.3086   30.9515 H   0  0  0  0  0  0  0  0  0  0  0  0
    2.0661   -3.4354   29.8270 H   0  0  0  0  0  0  0  0  0  0  0  0
    0.0130   -3.3106   28.4600 H   0  0  0  0  0  0  0  0  0  0  0  0
    0.3817   -0.2798   31.7015 H   0  0  0  0  0  0  0  0  0  0  0  0
    1.2866    2.0318   31.7436 H   0  0  0  0  0  0  0  0  0  0  0  0
    0.5506    4.3172   29.2658 H   0  0  0  0  0  0  0  0  0  0  0  0
   -0.1164    2.6751   27.7266 H   0  0  0  0  0  0  0  0  0  0  0  0
   -0.9773    0.3619   27.6451 H   0  0  0  0  0  0  0  0  0  0  0  0
    3.5267   -4.0565   32.5722 H   0  0  0  0  0  0  0  0  0  0  0  0
    4.8435   -2.2842   33.6417 H   0  0  0  0  0  0  0  0  0  0  0  0
  1  2  1  0
  2  3  1  0
  3  4  2  0
  3  5  1  0
  5  6  1  0
  6  7  2  0
  7  8  1  0
  8  9  2  0
  9 10  1  0
 10 11  2  0
 11 12  1  0
 12 13  1  0
 13 14  1  0
 13 15  2  0
 15 16  1  0
 16 17  2  0
 17 18  1  0
 18 19  2  0
 19 20  1  0
 20 21  1  0
 21 22  1  0
 22 23  2  0
 22 24  2  0
 22 25  1  0
 25 26  2  0
 26 27  1  0
 27 28  2  0
 28 29  1  0
 28 30  1  0
 30 31  2  0
  9 32  1  0
 32 33  2  0
 33  6  1  0
 19 10  1  0
 31 25  1  0
 17 12  1  0
  1 34  1  0
  1 35  1  0
  1 36  1  0
  2 37  1  0
  5 38  1  0
  5 39  1  0
  7 40  1  0
  8 41  1  0
 11 42  1  0
 14 43  1  0
 14 44  1  0
 18 45  1  0
 20 46  1  0
 20 47  1  0
 21 48  1  0
 26 49  1  0
 27 50  1  0
 29 51  1  0
 30 52  1  0
 31 53  1  0
 32 54  1  0
 33 55  1  0
M  END
>  <Energy>  (731) 
-7.5544476824814151

>  <compound_id>  (731) 
3690

>  <target_id>  (731) 
1

>  <reference_id>  (731) 
128

>  <inspiration_ids>  (731) 
[128, 131]

>  <energy_score>  (731) 
-66.53557398142976

>  <distance_score>  (731) 
1.7142778026203058

>  <path>  (731) 
/opt/xchem-fragalysis-2/maxwin/BulkDock/SCRATCH/505734/C3690-P128/C3690-P128.minimised.mol

>  <scratch_subdir>  (731) 
/opt/xchem-fragalysis-2/maxwin/BulkDock/SCRATCH/505734/C3690-P128

>  <fragmenstein_runtime>  (731) 
11.292487621307373

>  <fragmenstein_outcome>  (731) 
too moved

>  <fragmenstein_mode>  (731) 
expansion

>  <fragmenstein_error>  (731) 


$$$$
C3690-P131
     RDKit          3D

 55 58  0  0  0  0  0  0  0  0999 V2000
    2.9490    2.8715   33.5167 C   0  0  0  0  0  0  0  0  0  0  0  0
    3.2716    1.5910   34.0755 N   0  0  0  0  0  0  0  0  0  0  0  0
    4.5633    0.7375   33.9601 C   0  0  0  0  0  0  0  0  0  0  0  0
    5.5313    0.9115   33.3303 O   0  0  0  0  0  0  0  0  0  0  0  0
    4.3723   -0.4895   34.8538 C   0  0  0  0  0  0  0  0  0  0  0  0
    3.4405   -1.5204   34.2630 C   0  0  0  0  0  0  0  0  0  0  0  0
    2.3604   -2.0128   35.0022 C   0  0  0  0  0  0  0  0  0  0  0  0
    1.4879   -2.9600   34.4538 C   0  0  0  0  0  0  0  0  0  0  0  0
    1.6937   -3.4610   33.1662 C   0  0  0  0  0  0  0  0  0  0  0  0
    0.7723   -4.4422   32.5413 C   0  0  0  0  0  0  0  0  0  0  0  0
    0.3449   -5.5005   33.2661 C   0  0  0  0  0  0  0  0  0  0  0  0
   -0.3570   -6.5274   32.6412 N   0  0  0  0  0  0  0  0  0  0  0  0
   -1.0149   -7.6341   33.1377 C   0  0  0  0  0  0  0  0  0  0  0  0
   -1.2013   -7.8610   34.4593 N   0  0  0  0  0  0  0  0  0  0  0  0
   -1.4342   -8.3704   32.1290 N   0  0  0  0  0  0  0  0  0  0  0  0
   -1.1152   -7.7331   30.9519 N   0  0  0  0  0  0  0  0  0  0  0  0
   -0.5133   -6.6088   31.2707 C   0  0  0  0  0  0  0  0  0  0  0  0
   -0.1404   -5.4720   30.5102 C   0  0  0  0  0  0  0  0  0  0  0  0
    0.3382   -4.3664   31.1203 C   0  0  0  0  0  0  0  0  0  0  0  0
    0.3758   -3.0052   30.4482 C   0  0  0  0  0  0  0  0  0  0  0  0
   -0.6659   -2.8493   29.4582 N   0  0  0  0  0  0  0  0  0  0  0  0
   -1.7647   -1.6108   29.5325 S   0  0  0  0  0  0  0  0  0  0  0  0
   -2.2536   -1.5211   30.8930 O   0  0  0  0  0  0  0  0  0  0  0  0
   -2.6477   -1.8154   28.4171 O   0  0  0  0  0  0  0  0  0  0  0  0
   -0.8950   -0.1169   29.1760 C   0  0  0  0  0  0  0  0  0  0  0  0
   -0.0943    0.4788   30.1500 C   0  0  0  0  0  0  0  0  0  0  0  0
    0.4635    1.7298   29.8953 C   0  0  0  0  0  0  0  0  0  0  0  0
    0.1701    2.3925   28.7061 C   0  0  0  0  0  0  0  0  0  0  0  0
    0.6965    3.6376   28.5333 O   0  0  0  0  0  0  0  0  0  0  0  0
   -0.6421    1.8139   27.7384 C   0  0  0  0  0  0  0  0  0  0  0  0
   -1.1669    0.5450   27.9684 C   0  0  0  0  0  0  0  0  0  0  0  0
    2.8119   -3.0048   32.4524 C   0  0  0  0  0  0  0  0  0  0  0  0
    3.6626   -2.0333   32.9831 C   0  0  0  0  0  0  0  0  0  0  0  0
    2.8111    3.5816   34.3350 H   0  0  0  0  0  0  0  0  0  0  0  0
    2.0206    2.7798   32.9496 H   0  0  0  0  0  0  0  0  0  0  0  0
    3.7609    3.2021   32.8656 H   0  0  0  0  0  0  0  0  0  0  0  0
    2.5939    1.1038   34.6507 H   0  0  0  0  0  0  0  0  0  0  0  0
    5.3531   -0.9510   35.0231 H   0  0  0  0  0  0  0  0  0  0  0  0
    4.0203   -0.1519   35.8363 H   0  0  0  0  0  0  0  0  0  0  0  0
    2.1693   -1.6497   36.0105 H   0  0  0  0  0  0  0  0  0  0  0  0
    0.6304   -3.2793   35.0437 H   0  0  0  0  0  0  0  0  0  0  0  0
    0.5505   -5.6343   34.3198 H   0  0  0  0  0  0  0  0  0  0  0  0
   -0.5348   -7.5108   35.1362 H   0  0  0  0  0  0  0  0  0  0  0  0
   -1.4128   -8.8512   34.6748 H   0  0  0  0  0  0  0  0  0  0  0  0
   -0.4210   -5.4533   29.4686 H   0  0  0  0  0  0  0  0  0  0  0  0
    0.2728   -2.2269   31.2086 H   0  0  0  0  0  0  0  0  0  0  0  0
    1.3421   -2.8613   29.9537 H   0  0  0  0  0  0  0  0  0  0  0  0
   -0.6729   -3.3518   28.5705 H   0  0  0  0  0  0  0  0  0  0  0  0
    0.0761    0.0045   31.1109 H   0  0  0  0  0  0  0  0  0  0  0  0
    1.0946    2.2129   30.6357 H   0  0  0  0  0  0  0  0  0  0  0  0
    0.1544    4.1058   27.8742 H   0  0  0  0  0  0  0  0  0  0  0  0
   -0.8799    2.3321   26.8148 H   0  0  0  0  0  0  0  0  0  0  0  0
   -1.8131    0.0946   27.2147 H   0  0  0  0  0  0  0  0  0  0  0  0
    3.0485   -3.4060   31.4693 H   0  0  0  0  0  0  0  0  0  0  0  0
    4.5152   -1.6953   32.3942 H   0  0  0  0  0  0  0  0  0  0  0  0
  1  2  1  0
  2  3  1  0
  3  4  2  0
  3  5  1  0
  5  6  1  0
  6  7  2  0
  7  8  1  0
  8  9  2  0
  9 10  1  0
 10 11  2  0
 11 12  1  0
 12 13  1  0
 13 14  1  0
 13 15  2  0
 15 16  1  0
 16 17  2  0
 17 18  1  0
 18 19  2  0
 19 20  1  0
 20 21  1  0
 21 22  1  0
 22 23  2  0
 22 24  2  0
 22 25  1  0
 25 26  2  0
 26 27  1  0
 27 28  2  0
 28 29  1  0
 28 30  1  0
 30 31  2  0
  9 32  1  0
 32 33  2  0
 33  6  1  0
 19 10  1  0
 31 25  1  0
 17 12  1  0
  1 34  1  0
  1 35  1  0
  1 36  1  0
  2 37  1  0
  5 38  1  0
  5 39  1  0
  7 40  1  0
  8 41  1  0
 11 42  1  0
 14 43  1  0
 14 44  1  0
 18 45  1  0
 20 46  1  0
 20 47  1  0
 21 48  1  0
 26 49  1  0
 27 50  1  0
 29 51  1  0
 30 52  1  0
 31 53  1  0
 32 54  1  0
 33 55  1  0
M  END
>  <Energy>  (732) 
10.901009819732826

>  <compound_id>  (732) 
3690

>  <target_id>  (732) 
1

>  <reference_id>  (732) 
131

>  <inspiration_ids>  (732) 
[128, 131]

>  <energy_score>  (732) 
-40.517816892319445

>  <distance_score>  (732) 
1.1468237745266816

>  <path>  (732) 
/opt/xchem-fragalysis-2/maxwin/BulkDock/SCRATCH/505734/C3690-P131/C3690-P131.minimised.mol

>  <scratch_subdir>  (732) 
/opt/xchem-fragalysis-2/maxwin/BulkDock/SCRATCH/505734/C3690-P131

>  <fragmenstein_runtime>  (732) 
8.014363527297974

>  <fragmenstein_outcome>  (732) 
too moved

>  <fragmenstein_mode>  (732) 
expansion

>  <fragmenstein_error>  (732) 


$$$$
C3690-P128
     RDKit          2D

  0  0  0  0  0  0  0  0  0  0999 V2000
M  END
>  <compound_id>  (733) 
3690

>  <target_id>  (733) 
1

>  <reference_id>  (733) 
128

>  <inspiration_ids>  (733) 
[128, 132]

>  <energy_score>  (733) 
nan

>  <distance_score>  (733) 
nan

>  <path>  (733) 
/opt/xchem-fragalysis-2/maxwin/BulkDock/SCRATCH/505734/C3690-P128/C3690-P128.minimised.mol

>  <scratch_subdir>  (733) 
/opt/xchem-fragalysis-2/maxwin/BulkDock/SCRATCH/505734/C3690-P128

>  <fragmenstein_runtime>  (733) 
0.2514169216156006

>  <fragmenstein_outcome>  (733) 
too distant

>  <fragmenstein_mode>  (733) 
expansion

>  <fragmenstein_error>  (733) 
DistanceError: hit0+hit1

$$$$
C3692-P128
     RDKit          3D

 56 59  0  0  0  0  0  0  0  0999 V2000
    5.1129   -1.5921   38.7315 C   0  0  0  0  0  0  0  0  0  0  0  0
    5.0742   -1.3848   37.3145 N   0  0  0  0  0  0  0  0  0  0  0  0
    4.6589   -0.1365   36.4893 C   0  0  0  0  0  0  0  0  0  0  0  0
    4.3591    0.9365   36.8396 O   0  0  0  0  0  0  0  0  0  0  0  0
    4.7833   -0.5103   35.0090 C   0  0  0  0  0  0  0  0  0  0  0  0
    3.8788   -1.6411   34.5781 C   0  0  0  0  0  0  0  0  0  0  0  0
    4.4060   -2.8046   34.0108 C   0  0  0  0  0  0  0  0  0  0  0  0
    3.5614   -3.8289   33.5763 C   0  0  0  0  0  0  0  0  0  0  0  0
    2.1730   -3.7207   33.7105 C   0  0  0  0  0  0  0  0  0  0  0  0
    1.3062   -4.7161   33.0763 C   0  0  0  0  0  0  0  0  0  0  0  0
    0.7228   -5.7480   33.8111 C   0  0  0  0  0  0  0  0  0  0  0  0
   -0.1059   -6.6575   33.1365 C   0  0  0  0  0  0  0  0  0  0  0  0
   -1.0244   -7.6688   33.5011 C   0  0  0  0  0  0  0  0  0  0  0  0
   -1.4118   -7.9130   34.7666 N   0  0  0  0  0  0  0  0  0  0  0  0
   -1.4289   -8.3707   32.4447 N   0  0  0  0  0  0  0  0  0  0  0  0
   -0.8663   -7.7464   31.4298 N   0  0  0  0  0  0  0  0  0  0  0  0
   -0.8610   -8.3761   30.2090 O   0  0  0  0  0  0  0  0  0  0  0  0
   -0.1620   -6.6345   31.7479 C   0  0  0  0  0  0  0  0  0  0  0  0
    0.3616   -5.6065   30.9772 C   0  0  0  0  0  0  0  0  0  0  0  0
    0.9369   -4.5641   31.7188 C   0  0  0  0  0  0  0  0  0  0  0  0
    0.6591   -3.1465   31.2520 C   0  0  0  0  0  0  0  0  0  0  0  0
   -0.6394   -2.7873   31.8853 N   0  0  0  0  0  0  0  0  0  0  0  0
   -1.0206   -1.1571   31.9557 S   0  0  0  0  0  0  0  0  0  0  0  0
    0.0562   -0.4653   32.6247 O   0  0  0  0  0  0  0  0  0  0  0  0
   -2.3938   -1.0582   32.4034 O   0  0  0  0  0  0  0  0  0  0  0  0
   -1.0308   -0.6146   30.3161 C   0  0  0  0  0  0  0  0  0  0  0  0
   -1.4665   -1.4360   29.2543 C   0  0  0  0  0  0  0  0  0  0  0  0
   -1.3564   -0.6438   28.1462 C   0  0  0  0  0  0  0  0  0  0  0  0
   -0.8232    0.5309   28.5714 N   0  0  0  0  0  0  0  0  0  0  0  0
   -0.5220    1.6657   27.7512 C   0  0  0  0  0  0  0  0  0  0  0  0
   -0.5802    0.5744   29.8905 N   0  0  0  0  0  0  0  0  0  0  0  0
    1.6559   -2.5805   34.3300 C   0  0  0  0  0  0  0  0  0  0  0  0
    2.4945   -1.5368   34.7255 C   0  0  0  0  0  0  0  0  0  0  0  0
    4.7825   -0.6858   39.2435 H   0  0  0  0  0  0  0  0  0  0  0  0
    4.4529   -2.4264   38.9785 H   0  0  0  0  0  0  0  0  0  0  0  0
    6.1378   -1.8355   39.0194 H   0  0  0  0  0  0  0  0  0  0  0  0
    5.3489   -2.1303   36.6858 H   0  0  0  0  0  0  0  0  0  0  0  0
    5.8356   -0.7484   34.8110 H   0  0  0  0  0  0  0  0  0  0  0  0
    4.5457    0.3750   34.4062 H   0  0  0  0  0  0  0  0  0  0  0  0
    5.4791   -2.9104   33.8658 H   0  0  0  0  0  0  0  0  0  0  0  0
    3.9966   -4.6982   33.0881 H   0  0  0  0  0  0  0  0  0  0  0  0
    0.8464   -5.8017   34.8889 H   0  0  0  0  0  0  0  0  0  0  0  0
   -0.7924   -7.6495   35.5238 H   0  0  0  0  0  0  0  0  0  0  0  0
   -1.6746   -8.9040   34.9058 H   0  0  0  0  0  0  0  0  0  0  0  0
   -0.4799   -9.2193   30.5221 H   0  0  0  0  0  0  0  0  0  0  0  0
    0.1055   -5.5067   29.9270 H   0  0  0  0  0  0  0  0  0  0  0  0
    1.4655   -2.4624   31.5270 H   0  0  0  0  0  0  0  0  0  0  0  0
    0.5725   -3.1249   30.1614 H   0  0  0  0  0  0  0  0  0  0  0  0
   -0.7869   -3.1997   32.8064 H   0  0  0  0  0  0  0  0  0  0  0  0
   -1.8504   -2.4459   29.2906 H   0  0  0  0  0  0  0  0  0  0  0  0
   -1.6320   -0.8088   27.1163 H   0  0  0  0  0  0  0  0  0  0  0  0
   -0.9042    2.5668   28.2383 H   0  0  0  0  0  0  0  0  0  0  0  0
    0.5624    1.7294   27.6322 H   0  0  0  0  0  0  0  0  0  0  0  0
   -0.9990    1.5532   26.7745 H   0  0  0  0  0  0  0  0  0  0  0  0
    0.5859   -2.4580   34.4755 H   0  0  0  0  0  0  0  0  0  0  0  0
    2.0492   -0.6378   35.1519 H   0  0  0  0  0  0  0  0  0  0  0  0
  1  2  1  0
  2  3  1  0
  3  4  2  0
  3  5  1  0
  5  6  1  0
  6  7  2  0
  7  8  1  0
  8  9  2  0
  9 10  1  0
 10 11  2  0
 11 12  1  0
 12 13  1  0
 13 14  1  0
 13 15  2  0
 15 16  1  0
 16 17  1  0
 16 18  1  0
 18 19  1  0
 19 20  2  0
 20 21  1  0
 21 22  1  0
 22 23  1  0
 23 24  2  0
 23 25  2  0
 23 26  1  0
 26 27  1  0
 27 28  2  0
 28 29  1  0
 29 30  1  0
 29 31  1  0
  9 32  1  0
 32 33  2  0
 33  6  1  0
 20 10  1  0
 31 26  2  0
 18 12  2  0
  1 34  1  0
  1 35  1  0
  1 36  1  0
  2 37  1  0
  5 38  1  0
  5 39  1  0
  7 40  1  0
  8 41  1  0
 11 42  1  0
 14 43  1  0
 14 44  1  0
 17 45  1  0
 19 46  1  0
 21 47  1  0
 21 48  1  0
 22 49  1  0
 27 50  1  0
 28 51  1  0
 30 52  1  0
 30 53  1  0
 30 54  1  0
 32 55  1  0
 33 56  1  0
M  END
>  <Energy>  (734) 
26.83218070615639

>  <compound_id>  (734) 
3692

>  <target_id>  (734) 
1

>  <reference_id>  (734) 
128

>  <inspiration_ids>  (734) 
[128, 134]

>  <energy_score>  (734) 
-30.272491333120854

>  <distance_score>  (734) 
1.8657217429568689

>  <path>  (734) 
/opt/xchem-fragalysis-2/maxwin/BulkDock/SCRATCH/505734/C3692-P128/C3692-P128.minimised.mol

>  <scratch_subdir>  (734) 
/opt/xchem-fragalysis-2/maxwin/BulkDock/SCRATCH/505734/C3692-P128

>  <fragmenstein_runtime>  (734) 
7.1219401359558105

>  <fragmenstein_outcome>  (734) 
too moved

>  <fragmenstein_mode>  (734) 
expansion

>  <fragmenstein_error>  (734) 


$$$$
C3692-P134
     RDKit          3D

 56 59  0  0  0  0  0  0  0  0999 V2000
    5.1910   -1.4322   38.8214 C   0  0  0  0  0  0  0  0  0  0  0  0
    5.0550   -1.3052   37.4009 N   0  0  0  0  0  0  0  0  0  0  0  0
    4.6358   -0.0874   36.5333 C   0  0  0  0  0  0  0  0  0  0  0  0
    4.2636    0.9736   36.8486 O   0  0  0  0  0  0  0  0  0  0  0  0
    4.8086   -0.4963   35.0677 C   0  0  0  0  0  0  0  0  0  0  0  0
    3.8958   -1.6165   34.6274 C   0  0  0  0  0  0  0  0  0  0  0  0
    4.4180   -2.7955   34.0879 C   0  0  0  0  0  0  0  0  0  0  0  0
    3.5683   -3.8119   33.6452 C   0  0  0  0  0  0  0  0  0  0  0  0
    2.1792   -3.6801   33.7425 C   0  0  0  0  0  0  0  0  0  0  0  0
    1.3108   -4.6665   33.0963 C   0  0  0  0  0  0  0  0  0  0  0  0
    0.7164   -5.6994   33.8204 C   0  0  0  0  0  0  0  0  0  0  0  0
   -0.1217   -6.5925   33.1357 C   0  0  0  0  0  0  0  0  0  0  0  0
   -1.0507   -7.5983   33.4884 C   0  0  0  0  0  0  0  0  0  0  0  0
   -1.4376   -7.8523   34.7509 N   0  0  0  0  0  0  0  0  0  0  0  0
   -1.4553   -8.2886   32.4236 N   0  0  0  0  0  0  0  0  0  0  0  0
   -0.8901   -7.6562   31.4171 N   0  0  0  0  0  0  0  0  0  0  0  0
   -0.8677   -8.2798   30.1929 O   0  0  0  0  0  0  0  0  0  0  0  0
   -0.1741   -6.5563   31.7477 C   0  0  0  0  0  0  0  0  0  0  0  0
    0.3636   -5.5299   30.9861 C   0  0  0  0  0  0  0  0  0  0  0  0
    0.9450   -4.5000   31.7394 C   0  0  0  0  0  0  0  0  0  0  0  0
    0.6611   -3.0783   31.2905 C   0  0  0  0  0  0  0  0  0  0  0  0
   -0.6425   -2.7364   31.9201 N   0  0  0  0  0  0  0  0  0  0  0  0
   -1.0466   -1.1118   31.9763 S   0  0  0  0  0  0  0  0  0  0  0  0
    0.0228   -0.3986   32.6348 O   0  0  0  0  0  0  0  0  0  0  0  0
   -2.4214   -1.0216   32.4192 O   0  0  0  0  0  0  0  0  0  0  0  0
   -1.0602   -0.5975   30.3272 C   0  0  0  0  0  0  0  0  0  0  0  0
   -1.5066   -1.4366   29.2841 C   0  0  0  0  0  0  0  0  0  0  0  0
   -1.3729   -0.6772   28.1555 C   0  0  0  0  0  0  0  0  0  0  0  0
   -0.8366    0.5049   28.5576 N   0  0  0  0  0  0  0  0  0  0  0  0
   -0.5385    1.6253   27.7169 C   0  0  0  0  0  0  0  0  0  0  0  0
   -0.5838    0.5703   29.8737 N   0  0  0  0  0  0  0  0  0  0  0  0
    1.6660   -2.5249   34.3377 C   0  0  0  0  0  0  0  0  0  0  0  0
    2.5103   -1.4887   34.7396 C   0  0  0  0  0  0  0  0  0  0  0  0
    6.2212   -1.7151   39.0481 H   0  0  0  0  0  0  0  0  0  0  0  0
    4.9473   -0.4810   39.2993 H   0  0  0  0  0  0  0  0  0  0  0  0
    4.5101   -2.2130   39.1670 H   0  0  0  0  0  0  0  0  0  0  0  0
    5.2471   -2.0986   36.8006 H   0  0  0  0  0  0  0  0  0  0  0  0
    5.8620   -0.7625   34.9161 H   0  0  0  0  0  0  0  0  0  0  0  0
    4.6177    0.3810   34.4373 H   0  0  0  0  0  0  0  0  0  0  0  0
    5.4928   -2.9208   33.9741 H   0  0  0  0  0  0  0  0  0  0  0  0
    4.0028   -4.6947   33.1831 H   0  0  0  0  0  0  0  0  0  0  0  0
    0.8336   -5.7628   34.8986 H   0  0  0  0  0  0  0  0  0  0  0  0
   -1.6906   -8.8445   34.8932 H   0  0  0  0  0  0  0  0  0  0  0  0
   -0.8388   -7.5712   35.5177 H   0  0  0  0  0  0  0  0  0  0  0  0
   -0.5073   -9.1320   30.5078 H   0  0  0  0  0  0  0  0  0  0  0  0
    0.1017   -5.4144   29.9391 H   0  0  0  0  0  0  0  0  0  0  0  0
    1.4618   -2.3927   31.5776 H   0  0  0  0  0  0  0  0  0  0  0  0
    0.5824   -3.0440   30.1996 H   0  0  0  0  0  0  0  0  0  0  0  0
   -0.7978   -3.1527   32.8388 H   0  0  0  0  0  0  0  0  0  0  0  0
   -1.9022   -2.4404   29.3456 H   0  0  0  0  0  0  0  0  0  0  0  0
   -1.6401   -0.8683   27.1275 H   0  0  0  0  0  0  0  0  0  0  0  0
   -1.1134    1.5522   26.7906 H   0  0  0  0  0  0  0  0  0  0  0  0
   -0.8134    2.5464   28.2382 H   0  0  0  0  0  0  0  0  0  0  0  0
    0.5320    1.6189   27.4983 H   0  0  0  0  0  0  0  0  0  0  0  0
    0.5953   -2.3856   34.4610 H   0  0  0  0  0  0  0  0  0  0  0  0
    2.0687   -0.5788   35.1465 H   0  0  0  0  0  0  0  0  0  0  0  0
  1  2  1  0
  2  3  1  0
  3  4  2  0
  3  5  1  0
  5  6  1  0
  6  7  2  0
  7  8  1  0
  8  9  2  0
  9 10  1  0
 10 11  2  0
 11 12  1  0
 12 13  1  0
 13 14  1  0
 13 15  2  0
 15 16  1  0
 16 17  1  0
 16 18  1  0
 18 19  1  0
 19 20  2  0
 20 21  1  0
 21 22  1  0
 22 23  1  0
 23 24  2  0
 23 25  2  0
 23 26  1  0
 26 27  1  0
 27 28  2  0
 28 29  1  0
 29 30  1  0
 29 31  1  0
  9 32  1  0
 32 33  2  0
 33  6  1  0
 20 10  1  0
 31 26  2  0
 18 12  2  0
  1 34  1  0
  1 35  1  0
  1 36  1  0
  2 37  1  0
  5 38  1  0
  5 39  1  0
  7 40  1  0
  8 41  1  0
 11 42  1  0
 14 43  1  0
 14 44  1  0
 17 45  1  0
 19 46  1  0
 21 47  1  0
 21 48  1  0
 22 49  1  0
 27 50  1  0
 28 51  1  0
 30 52  1  0
 30 53  1  0
 30 54  1  0
 32 55  1  0
 33 56  1  0
M  END
>  <Energy>  (735) 
27.563704706578676

>  <compound_id>  (735) 
3692

>  <target_id>  (735) 
1

>  <reference_id>  (735) 
134

>  <inspiration_ids>  (735) 
[128, 134]

>  <energy_score>  (735) 
-29.540967332700006

>  <distance_score>  (735) 
1.8635265861139085

>  <path>  (735) 
/opt/xchem-fragalysis-2/maxwin/BulkDock/SCRATCH/505734/C3692-P134/C3692-P134.minimised.mol

>  <scratch_subdir>  (735) 
/opt/xchem-fragalysis-2/maxwin/BulkDock/SCRATCH/505734/C3692-P134

>  <fragmenstein_runtime>  (735) 
5.022691011428833

>  <fragmenstein_outcome>  (735) 
too moved

>  <fragmenstein_mode>  (735) 
expansion

>  <fragmenstein_error>  (735) 


$$$$
C3694-P128
     RDKit          3D

 50 53  0  0  0  0  0  0  0  0999 V2000
    0.4213    1.3305   38.8487 C   0  0  0  0  0  0  0  0  0  0  0  0
    1.0237    1.1810   37.5558 N   0  0  0  0  0  0  0  0  0  0  0  0
    0.7713    1.8591   36.3152 C   0  0  0  0  0  0  0  0  0  0  0  0
    0.0477    2.7784   36.0597 O   0  0  0  0  0  0  0  0  0  0  0  0
    1.6617    1.2824   35.2065 C   0  0  0  0  0  0  0  0  0  0  0  0
    1.4411   -0.1878   34.9317 C   0  0  0  0  0  0  0  0  0  0  0  0
    2.5184   -1.0764   34.9115 C   0  0  0  0  0  0  0  0  0  0  0  0
    2.3078   -2.4332   34.6506 C   0  0  0  0  0  0  0  0  0  0  0  0
    1.0199   -2.9428   34.4146 C   0  0  0  0  0  0  0  0  0  0  0  0
    0.8244   -4.3682   34.0627 C   0  0  0  0  0  0  0  0  0  0  0  0
   -0.3345   -5.0569   34.2280 C   0  0  0  0  0  0  0  0  0  0  0  0
   -0.4629   -6.2866   33.5663 N   0  0  0  0  0  0  0  0  0  0  0  0
   -1.3099   -7.3658   33.6822 C   0  0  0  0  0  0  0  0  0  0  0  0
   -1.9196   -7.7017   34.8518 N   0  0  0  0  0  0  0  0  0  0  0  0
   -1.2396   -8.0753   32.5728 N   0  0  0  0  0  0  0  0  0  0  0  0
   -0.1705   -7.6153   31.8316 N   0  0  0  0  0  0  0  0  0  0  0  0
    0.3884   -6.6559   32.5304 C   0  0  0  0  0  0  0  0  0  0  0  0
    1.5904   -5.8793   32.3925 C   0  0  0  0  0  0  0  0  0  0  0  0
    1.9338   -5.2257   33.5380 C   0  0  0  0  0  0  0  0  0  0  0  0
    2.6439   -6.0221   34.6697 C   0  0  0  0  0  0  0  0  0  0  0  0
    2.3669   -5.4629   36.0033 N   0  0  0  0  0  0  0  0  0  0  0  0
    1.5454   -6.3796   37.1499 S   0  0  0  0  0  0  0  0  0  0  0  0
    0.5350   -7.1789   36.4958 O   0  0  0  0  0  0  0  0  0  0  0  0
    1.2504   -5.5014   38.2596 O   0  0  0  0  0  0  0  0  0  0  0  0
    2.6731   -7.5215   37.8308 C   0  0  0  0  0  0  0  0  0  0  0  0
    2.3762   -8.3196   38.9174 C   0  0  0  0  0  0  0  0  0  0  0  0
    3.7685   -9.2103   39.3702 S   0  0  0  0  0  0  0  0  0  0  0  0
    4.6367   -8.4866   38.0781 C   0  0  0  0  0  0  0  0  0  0  0  0
    3.9762   -7.6267   37.3337 N   0  0  0  0  0  0  0  0  0  0  0  0
   -0.0496   -2.0402   34.4132 C   0  0  0  0  0  0  0  0  0  0  0  0
    0.1588   -0.6793   34.6620 C   0  0  0  0  0  0  0  0  0  0  0  0
   -0.1489    2.2615   38.8850 H   0  0  0  0  0  0  0  0  0  0  0  0
   -0.2458    0.4822   39.0188 H   0  0  0  0  0  0  0  0  0  0  0  0
    1.2104    1.3361   39.6036 H   0  0  0  0  0  0  0  0  0  0  0  0
    1.6361    0.3916   37.3824 H   0  0  0  0  0  0  0  0  0  0  0  0
    1.4748    1.8397   34.2801 H   0  0  0  0  0  0  0  0  0  0  0  0
    2.7044    1.4774   35.4868 H   0  0  0  0  0  0  0  0  0  0  0  0
    3.5321   -0.7222   35.0855 H   0  0  0  0  0  0  0  0  0  0  0  0
    3.1780   -3.0821   34.6231 H   0  0  0  0  0  0  0  0  0  0  0  0
   -1.2024   -4.7034   34.7670 H   0  0  0  0  0  0  0  0  0  0  0  0
   -2.0367   -8.7320   34.8811 H   0  0  0  0  0  0  0  0  0  0  0  0
   -1.3355   -7.4920   35.6713 H   0  0  0  0  0  0  0  0  0  0  0  0
    1.5009   -5.2759   31.4862 H   0  0  0  0  0  0  0  0  0  0  0  0
    2.3847   -7.0855   34.6246 H   0  0  0  0  0  0  0  0  0  0  0  0
    3.7253   -5.9513   34.5015 H   0  0  0  0  0  0  0  0  0  0  0  0
    3.1400   -4.9540   36.4284 H   0  0  0  0  0  0  0  0  0  0  0  0
    1.4394   -8.4038   39.4526 H   0  0  0  0  0  0  0  0  0  0  0  0
    5.6756   -8.7328   37.8971 H   0  0  0  0  0  0  0  0  0  0  0  0
   -1.0636   -2.3719   34.1974 H   0  0  0  0  0  0  0  0  0  0  0  0
   -0.6974   -0.0053   34.6428 H   0  0  0  0  0  0  0  0  0  0  0  0
  1  2  1  0
  2  3  1  0
  3  4  2  0
  3  5  1  0
  5  6  1  0
  6  7  2  0
  7  8  1  0
  8  9  2  0
  9 10  1  0
 10 11  2  0
 11 12  1  0
 12 13  1  0
 13 14  1  0
 13 15  2  0
 15 16  1  0
 16 17  2  0
 17 18  1  0
 18 19  2  0
 19 20  1  0
 20 21  1  0
 21 22  1  0
 22 23  2  0
 22 24  2  0
 22 25  1  0
 25 26  2  0
 26 27  1  0
 27 28  1  0
 28 29  2  0
  9 30  1  0
 30 31  2  0
 31  6  1  0
 19 10  1  0
 29 25  1  0
 17 12  1  0
  1 32  1  0
  1 33  1  0
  1 34  1  0
  2 35  1  0
  5 36  1  0
  5 37  1  0
  7 38  1  0
  8 39  1  0
 11 40  1  0
 14 41  1  0
 14 42  1  0
 18 43  1  0
 20 44  1  0
 20 45  1  0
 21 46  1  0
 26 47  1  0
 28 48  1  0
 30 49  1  0
 31 50  1  0
M  END
>  <Energy>  (736) 
99.21652470131778

>  <compound_id>  (736) 
3694

>  <target_id>  (736) 
1

>  <reference_id>  (736) 
128

>  <inspiration_ids>  (736) 
[128, 140]

>  <energy_score>  (736) 
-58.39279048016067

>  <distance_score>  (736) 
2.3548125933548523

>  <path>  (736) 
/opt/xchem-fragalysis-2/maxwin/BulkDock/SCRATCH/505734/C3694-P128/C3694-P128.minimised.mol

>  <scratch_subdir>  (736) 
/opt/xchem-fragalysis-2/maxwin/BulkDock/SCRATCH/505734/C3694-P128

>  <fragmenstein_runtime>  (736) 
7.336434364318848

>  <fragmenstein_outcome>  (736) 
too moved

>  <fragmenstein_mode>  (736) 
expansion

>  <fragmenstein_error>  (736) 


$$$$
C3694-P140
     RDKit          3D

 50 53  0  0  0  0  0  0  0  0999 V2000
    0.0496    4.7246   36.6339 C   0  0  0  0  0  0  0  0  0  0  0  0
    0.7765    3.4889   36.5830 N   0  0  0  0  0  0  0  0  0  0  0  0
    0.3477    2.1532   36.2500 C   0  0  0  0  0  0  0  0  0  0  0  0
   -0.7405    1.7211   36.0075 O   0  0  0  0  0  0  0  0  0  0  0  0
    1.5809    1.2340   36.2768 C   0  0  0  0  0  0  0  0  0  0  0  0
    1.3344   -0.1745   35.7882 C   0  0  0  0  0  0  0  0  0  0  0  0
    0.9372   -1.1771   36.6848 C   0  0  0  0  0  0  0  0  0  0  0  0
    0.6964   -2.4804   36.2430 C   0  0  0  0  0  0  0  0  0  0  0  0
    0.8617   -2.8017   34.8983 C   0  0  0  0  0  0  0  0  0  0  0  0
    0.7291   -4.1750   34.3906 C   0  0  0  0  0  0  0  0  0  0  0  0
   -0.4312   -4.8562   34.4549 C   0  0  0  0  0  0  0  0  0  0  0  0
   -0.5607   -5.9897   33.6552 N   0  0  0  0  0  0  0  0  0  0  0  0
   -1.4067   -7.0723   33.6846 C   0  0  0  0  0  0  0  0  0  0  0  0
   -2.0348   -7.4713   34.8249 N   0  0  0  0  0  0  0  0  0  0  0  0
   -1.3087   -7.7234   32.5427 N   0  0  0  0  0  0  0  0  0  0  0  0
   -0.2071   -7.2344   31.8692 N   0  0  0  0  0  0  0  0  0  0  0  0
    0.3147   -6.2932   32.6250 C   0  0  0  0  0  0  0  0  0  0  0  0
    1.6079   -5.7172   32.7138 C   0  0  0  0  0  0  0  0  0  0  0  0
    1.8498   -4.8685   33.7345 C   0  0  0  0  0  0  0  0  0  0  0  0
    3.1951   -4.7875   34.4102 C   0  0  0  0  0  0  0  0  0  0  0  0
    3.4184   -5.9947   35.2614 N   0  0  0  0  0  0  0  0  0  0  0  0
    2.4036   -6.2064   36.6173 S   0  0  0  0  0  0  0  0  0  0  0  0
    1.2325   -6.9525   36.2117 O   0  0  0  0  0  0  0  0  0  0  0  0
    2.3417   -4.9617   37.3456 O   0  0  0  0  0  0  0  0  0  0  0  0
    3.2448   -7.2690   37.7155 C   0  0  0  0  0  0  0  0  0  0  0  0
    2.6537   -7.8672   38.8099 C   0  0  0  0  0  0  0  0  0  0  0  0
    3.8270   -8.7805   39.6626 S   0  0  0  0  0  0  0  0  0  0  0  0
    5.0093   -8.3164   38.5086 C   0  0  0  0  0  0  0  0  0  0  0  0
    4.6059   -7.5300   37.5339 N   0  0  0  0  0  0  0  0  0  0  0  0
    1.2339   -1.7936   33.9930 C   0  0  0  0  0  0  0  0  0  0  0  0
    1.4656   -0.4903   34.4322 C   0  0  0  0  0  0  0  0  0  0  0  0
    0.1107    5.1214   37.6497 H   0  0  0  0  0  0  0  0  0  0  0  0
    0.5109    5.4274   35.9367 H   0  0  0  0  0  0  0  0  0  0  0  0
   -0.9936    4.5525   36.3595 H   0  0  0  0  0  0  0  0  0  0  0  0
    1.7645    3.4730   36.8068 H   0  0  0  0  0  0  0  0  0  0  0  0
    2.3717    1.6844   35.6628 H   0  0  0  0  0  0  0  0  0  0  0  0
    1.9592    1.1987   37.3065 H   0  0  0  0  0  0  0  0  0  0  0  0
    0.8014   -0.9483   37.7400 H   0  0  0  0  0  0  0  0  0  0  0  0
    0.3997   -3.2367   36.9653 H   0  0  0  0  0  0  0  0  0  0  0  0
   -1.3041   -4.5390   35.0099 H   0  0  0  0  0  0  0  0  0  0  0  0
   -2.1090   -8.4993   34.8115 H   0  0  0  0  0  0  0  0  0  0  0  0
   -1.5107   -7.2261   35.6674 H   0  0  0  0  0  0  0  0  0  0  0  0
    2.4063   -6.2071   32.1912 H   0  0  0  0  0  0  0  0  0  0  0  0
    3.9854   -4.7767   33.6491 H   0  0  0  0  0  0  0  0  0  0  0  0
    3.3457   -3.8818   35.0052 H   0  0  0  0  0  0  0  0  0  0  0  0
    4.3857   -6.0514   35.5961 H   0  0  0  0  0  0  0  0  0  0  0  0
    1.6231   -7.8187   39.1357 H   0  0  0  0  0  0  0  0  0  0  0  0
    6.0327   -8.6605   38.5909 H   0  0  0  0  0  0  0  0  0  0  0  0
    1.3407   -2.0159   32.9333 H   0  0  0  0  0  0  0  0  0  0  0  0
    1.7382    0.2751   33.7094 H   0  0  0  0  0  0  0  0  0  0  0  0
  1  2  1  0
  2  3  1  0
  3  4  2  0
  3  5  1  0
  5  6  1  0
  6  7  2  0
  7  8  1  0
  8  9  2  0
  9 10  1  0
 10 11  2  0
 11 12  1  0
 12 13  1  0
 13 14  1  0
 13 15  2  0
 15 16  1  0
 16 17  2  0
 17 18  1  0
 18 19  2  0
 19 20  1  0
 20 21  1  0
 21 22  1  0
 22 23  2  0
 22 24  2  0
 22 25  1  0
 25 26  2  0
 26 27  1  0
 27 28  1  0
 28 29  2  0
  9 30  1  0
 30 31  2  0
 31  6  1  0
 19 10  1  0
 29 25  1  0
 17 12  1  0
  1 32  1  0
  1 33  1  0
  1 34  1  0
  2 35  1  0
  5 36  1  0
  5 37  1  0
  7 38  1  0
  8 39  1  0
 11 40  1  0
 14 41  1  0
 14 42  1  0
 18 43  1  0
 20 44  1  0
 20 45  1  0
 21 46  1  0
 26 47  1  0
 28 48  1  0
 30 49  1  0
 31 50  1  0
M  END
>  <Energy>  (737) 
58.792102866214556

>  <compound_id>  (737) 
3694

>  <target_id>  (737) 
1

>  <reference_id>  (737) 
140

>  <inspiration_ids>  (737) 
[128, 140]

>  <energy_score>  (737) 
-98.81721231526494

>  <distance_score>  (737) 
2.6905230380500496

>  <path>  (737) 
/opt/xchem-fragalysis-2/maxwin/BulkDock/SCRATCH/505734/C3694-P140/C3694-P140.minimised.mol

>  <scratch_subdir>  (737) 
/opt/xchem-fragalysis-2/maxwin/BulkDock/SCRATCH/505734/C3694-P140

>  <fragmenstein_runtime>  (737) 
6.977084636688232

>  <fragmenstein_outcome>  (737) 
too moved

>  <fragmenstein_mode>  (737) 
expansion

>  <fragmenstein_error>  (737) 


$$$$
C3695-P128
     RDKit          3D

 55 58  0  0  0  0  0  0  0  0999 V2000
    2.6199    0.0740   38.5307 C   0  0  0  0  0  0  0  0  0  0  0  0
    3.2665   -0.3220   37.3147 N   0  0  0  0  0  0  0  0  0  0  0  0
    3.7131    0.5211   36.0901 C   0  0  0  0  0  0  0  0  0  0  0  0
    3.5534    1.6531   35.8522 O   0  0  0  0  0  0  0  0  0  0  0  0
    4.4673   -0.4190   35.1466 C   0  0  0  0  0  0  0  0  0  0  0  0
    3.5976   -1.4813   34.5149 C   0  0  0  0  0  0  0  0  0  0  0  0
    3.9616   -2.8326   34.5871 C   0  0  0  0  0  0  0  0  0  0  0  0
    3.1701   -3.8150   33.9875 C   0  0  0  0  0  0  0  0  0  0  0  0
    1.9994   -3.4600   33.3111 C   0  0  0  0  0  0  0  0  0  0  0  0
    1.2257   -4.4798   32.5857 C   0  0  0  0  0  0  0  0  0  0  0  0
    0.4603   -5.3358   33.3035 C   0  0  0  0  0  0  0  0  0  0  0  0
   -0.2387   -6.3566   32.6574 N   0  0  0  0  0  0  0  0  0  0  0  0
   -1.0364   -7.3903   33.1273 C   0  0  0  0  0  0  0  0  0  0  0  0
   -1.2792   -7.6322   34.4385 N   0  0  0  0  0  0  0  0  0  0  0  0
   -1.4596   -8.1060   32.1057 N   0  0  0  0  0  0  0  0  0  0  0  0
   -0.9310   -7.5806   30.9502 N   0  0  0  0  0  0  0  0  0  0  0  0
   -0.1889   -6.5481   31.2874 C   0  0  0  0  0  0  0  0  0  0  0  0
    0.6104   -5.6531   30.5284 C   0  0  0  0  0  0  0  0  0  0  0  0
    1.2811   -4.6311   31.1139 C   0  0  0  0  0  0  0  0  0  0  0  0
    2.1219   -3.6650   30.2738 C   0  0  0  0  0  0  0  0  0  0  0  0
    1.5083   -2.3322   29.9997 N   0  0  0  0  0  0  0  0  0  0  0  0
   -0.1532   -2.3292   29.6908 S   0  0  0  0  0  0  0  0  0  0  0  0
   -0.3472   -3.3965   28.7366 O   0  0  0  0  0  0  0  0  0  0  0  0
   -0.8371   -2.2972   30.9636 O   0  0  0  0  0  0  0  0  0  0  0  0
   -0.5186   -0.8239   28.8878 C   0  0  0  0  0  0  0  0  0  0  0  0
   -1.4559   -0.8139   27.8689 C   0  0  0  0  0  0  0  0  0  0  0  0
   -1.7813    0.3879   27.2556 C   0  0  0  0  0  0  0  0  0  0  0  0
   -1.2168    1.5547   27.7291 C   0  0  0  0  0  0  0  0  0  0  0  0
   -1.6047    2.7742   27.1787 N   0  0  0  0  0  0  0  0  0  0  0  0
   -0.2941    1.5659   28.7134 N   0  0  0  0  0  0  0  0  0  0  0  0
    0.0351    0.3741   29.2805 C   0  0  0  0  0  0  0  0  0  0  0  0
    1.6274   -2.1150   33.2549 C   0  0  0  0  0  0  0  0  0  0  0  0
    2.4285   -1.1306   33.8314 C   0  0  0  0  0  0  0  0  0  0  0  0
    3.2617   -0.1999   39.3708 H   0  0  0  0  0  0  0  0  0  0  0  0
    1.6680   -0.4558   38.6063 H   0  0  0  0  0  0  0  0  0  0  0  0
    2.4511    1.1529   38.5212 H   0  0  0  0  0  0  0  0  0  0  0  0
    3.5009   -1.2959   37.1593 H   0  0  0  0  0  0  0  0  0  0  0  0
    5.2945   -0.8682   35.7099 H   0  0  0  0  0  0  0  0  0  0  0  0
    4.9241    0.1811   34.3500 H   0  0  0  0  0  0  0  0  0  0  0  0
    4.8753   -3.1313   35.0969 H   0  0  0  0  0  0  0  0  0  0  0  0
    3.4877   -4.8537   34.0324 H   0  0  0  0  0  0  0  0  0  0  0  0
    0.3538   -5.2802   34.3798 H   0  0  0  0  0  0  0  0  0  0  0  0
   -0.6273   -7.3010   35.1393 H   0  0  0  0  0  0  0  0  0  0  0  0
   -1.5168   -8.6192   34.6314 H   0  0  0  0  0  0  0  0  0  0  0  0
    0.6314   -5.7882   29.4565 H   0  0  0  0  0  0  0  0  0  0  0  0
    2.3537   -4.1204   29.3016 H   0  0  0  0  0  0  0  0  0  0  0  0
    3.0952   -3.4998   30.7501 H   0  0  0  0  0  0  0  0  0  0  0  0
    2.0273   -1.8075   29.2958 H   0  0  0  0  0  0  0  0  0  0  0  0
   -1.9497   -1.7269   27.5446 H   0  0  0  0  0  0  0  0  0  0  0  0
   -2.4901    0.4095   26.4352 H   0  0  0  0  0  0  0  0  0  0  0  0
   -2.6158    2.8905   27.2418 H   0  0  0  0  0  0  0  0  0  0  0  0
   -1.1387    3.5068   27.7081 H   0  0  0  0  0  0  0  0  0  0  0  0
    0.7518    0.4385   30.0935 H   0  0  0  0  0  0  0  0  0  0  0  0
    0.7119   -1.8150   32.7543 H   0  0  0  0  0  0  0  0  0  0  0  0
    2.1216   -0.0882   33.7552 H   0  0  0  0  0  0  0  0  0  0  0  0
  1  2  1  0
  2  3  1  0
  3  4  2  0
  3  5  1  0
  5  6  1  0
  6  7  2  0
  7  8  1  0
  8  9  2  0
  9 10  1  0
 10 11  2  0
 11 12  1  0
 12 13  1  0
 13 14  1  0
 13 15  2  0
 15 16  1  0
 16 17  2  0
 17 18  1  0
 18 19  2  0
 19 20  1  0
 20 21  1  0
 21 22  1  0
 22 23  2  0
 22 24  2  0
 22 25  1  0
 25 26  2  0
 26 27  1  0
 27 28  2  0
 28 29  1  0
 28 30  1  0
 30 31  2  0
  9 32  1  0
 32 33  2  0
 33  6  1  0
 19 10  1  0
 31 25  1  0
 17 12  1  0
  1 34  1  0
  1 35  1  0
  1 36  1  0
  2 37  1  0
  5 38  1  0
  5 39  1  0
  7 40  1  0
  8 41  1  0
 11 42  1  0
 14 43  1  0
 14 44  1  0
 18 45  1  0
 20 46  1  0
 20 47  1  0
 21 48  1  0
 26 49  1  0
 27 50  1  0
 29 51  1  0
 29 52  1  0
 31 53  1  0
 32 54  1  0
 33 55  1  0
M  END
>  <Energy>  (738) 
-42.543653103512717

>  <compound_id>  (738) 
3695

>  <target_id>  (738) 
1

>  <reference_id>  (738) 
128

>  <inspiration_ids>  (738) 
[128, 141]

>  <energy_score>  (738) 
-31.22103861495009

>  <distance_score>  (738) 
1.2342003755400095

>  <path>  (738) 
/opt/xchem-fragalysis-2/maxwin/BulkDock/SCRATCH/505734/C3695-P128/C3695-P128.minimised.mol

>  <scratch_subdir>  (738) 
/opt/xchem-fragalysis-2/maxwin/BulkDock/SCRATCH/505734/C3695-P128

>  <fragmenstein_runtime>  (738) 
5.212425470352173

>  <fragmenstein_outcome>  (738) 
too moved

>  <fragmenstein_mode>  (738) 
expansion

>  <fragmenstein_error>  (738) 


$$$$
C3695-P141
     RDKit          3D

 55 58  0  0  0  0  0  0  0  0999 V2000
    2.4779   -0.0026   38.4913 C   0  0  0  0  0  0  0  0  0  0  0  0
    3.2493   -0.3389   37.3310 N   0  0  0  0  0  0  0  0  0  0  0  0
    3.6564    0.5243   36.1066 C   0  0  0  0  0  0  0  0  0  0  0  0
    3.4911    1.6605   35.8935 O   0  0  0  0  0  0  0  0  0  0  0  0
    4.4215   -0.3898   35.1465 C   0  0  0  0  0  0  0  0  0  0  0  0
    3.5623   -1.4567   34.5083 C   0  0  0  0  0  0  0  0  0  0  0  0
    3.9262   -2.8072   34.5908 C   0  0  0  0  0  0  0  0  0  0  0  0
    3.1415   -3.7921   33.9868 C   0  0  0  0  0  0  0  0  0  0  0  0
    1.9779   -3.4405   33.2960 C   0  0  0  0  0  0  0  0  0  0  0  0
    1.2159   -4.4645   32.5644 C   0  0  0  0  0  0  0  0  0  0  0  0
    0.4445   -5.3219   33.2742 C   0  0  0  0  0  0  0  0  0  0  0  0
   -0.2318   -6.3545   32.6225 N   0  0  0  0  0  0  0  0  0  0  0  0
   -1.0265   -7.3945   33.0839 C   0  0  0  0  0  0  0  0  0  0  0  0
   -1.2889   -7.6351   34.3912 N   0  0  0  0  0  0  0  0  0  0  0  0
   -1.4226   -8.1225   32.0604 N   0  0  0  0  0  0  0  0  0  0  0  0
   -0.8771   -7.6004   30.9118 N   0  0  0  0  0  0  0  0  0  0  0  0
   -0.1506   -6.5586   31.2557 C   0  0  0  0  0  0  0  0  0  0  0  0
    0.6567   -5.6631   30.5067 C   0  0  0  0  0  0  0  0  0  0  0  0
    1.2978   -4.6247   31.0953 C   0  0  0  0  0  0  0  0  0  0  0  0
    2.1305   -3.6488   30.2586 C   0  0  0  0  0  0  0  0  0  0  0  0
    1.4856   -2.3354   29.9523 N   0  0  0  0  0  0  0  0  0  0  0  0
   -0.1775   -2.3698   29.6540 S   0  0  0  0  0  0  0  0  0  0  0  0
   -0.3586   -3.4446   28.7059 O   0  0  0  0  0  0  0  0  0  0  0  0
   -0.8529   -2.3482   30.9321 O   0  0  0  0  0  0  0  0  0  0  0  0
   -0.5902   -0.8766   28.8498 C   0  0  0  0  0  0  0  0  0  0  0  0
   -1.5722   -0.8838   27.8708 C   0  0  0  0  0  0  0  0  0  0  0  0
   -1.9494    0.3149   27.2812 C   0  0  0  0  0  0  0  0  0  0  0  0
   -1.3679    1.4897   27.7182 C   0  0  0  0  0  0  0  0  0  0  0  0
   -1.7748    2.7029   27.1691 N   0  0  0  0  0  0  0  0  0  0  0  0
   -0.3985    1.5139   28.6563 N   0  0  0  0  0  0  0  0  0  0  0  0
   -0.0331    0.3291   29.2141 C   0  0  0  0  0  0  0  0  0  0  0  0
    1.6062   -2.0960   33.2283 C   0  0  0  0  0  0  0  0  0  0  0  0
    2.4002   -1.1093   33.8105 C   0  0  0  0  0  0  0  0  0  0  0  0
    2.9847   -0.3958   39.3749 H   0  0  0  0  0  0  0  0  0  0  0  0
    1.4916   -0.4619   38.3953 H   0  0  0  0  0  0  0  0  0  0  0  0
    2.3757    1.0826   38.5593 H   0  0  0  0  0  0  0  0  0  0  0  0
    3.4765   -1.3104   37.1512 H   0  0  0  0  0  0  0  0  0  0  0  0
    5.2608   -0.8327   35.6967 H   0  0  0  0  0  0  0  0  0  0  0  0
    4.8614    0.2281   34.3540 H   0  0  0  0  0  0  0  0  0  0  0  0
    4.8349   -3.1033   35.1111 H   0  0  0  0  0  0  0  0  0  0  0  0
    3.4605   -4.8303   34.0380 H   0  0  0  0  0  0  0  0  0  0  0  0
    0.3196   -5.2594   34.3480 H   0  0  0  0  0  0  0  0  0  0  0  0
   -0.6700   -7.2625   35.1009 H   0  0  0  0  0  0  0  0  0  0  0  0
   -1.5182   -8.6218   34.5799 H   0  0  0  0  0  0  0  0  0  0  0  0
    0.7107   -5.8082   29.4379 H   0  0  0  0  0  0  0  0  0  0  0  0
    2.3909   -4.1109   29.2969 H   0  0  0  0  0  0  0  0  0  0  0  0
    3.0902   -3.4508   30.7496 H   0  0  0  0  0  0  0  0  0  0  0  0
    1.9914   -1.8225   29.2301 H   0  0  0  0  0  0  0  0  0  0  0  0
   -2.0552   -1.8058   27.5565 H   0  0  0  0  0  0  0  0  0  0  0  0
   -2.6960    0.3261   26.4958 H   0  0  0  0  0  0  0  0  0  0  0  0
   -2.7826    2.8250   27.2597 H   0  0  0  0  0  0  0  0  0  0  0  0
   -1.2904    3.4433   27.6716 H   0  0  0  0  0  0  0  0  0  0  0  0
    0.7171    0.4053   29.9952 H   0  0  0  0  0  0  0  0  0  0  0  0
    0.6980   -1.7985   32.7132 H   0  0  0  0  0  0  0  0  0  0  0  0
    2.0948   -0.0671   33.7265 H   0  0  0  0  0  0  0  0  0  0  0  0
  1  2  1  0
  2  3  1  0
  3  4  2  0
  3  5  1  0
  5  6  1  0
  6  7  2  0
  7  8  1  0
  8  9  2  0
  9 10  1  0
 10 11  2  0
 11 12  1  0
 12 13  1  0
 13 14  1  0
 13 15  2  0
 15 16  1  0
 16 17  2  0
 17 18  1  0
 18 19  2  0
 19 20  1  0
 20 21  1  0
 21 22  1  0
 22 23  2  0
 22 24  2  0
 22 25  1  0
 25 26  2  0
 26 27  1  0
 27 28  2  0
 28 29  1  0
 28 30  1  0
 30 31  2  0
  9 32  1  0
 32 33  2  0
 33  6  1  0
 19 10  1  0
 31 25  1  0
 17 12  1  0
  1 34  1  0
  1 35  1  0
  1 36  1  0
  2 37  1  0
  5 38  1  0
  5 39  1  0
  7 40  1  0
  8 41  1  0
 11 42  1  0
 14 43  1  0
 14 44  1  0
 18 45  1  0
 20 46  1  0
 20 47  1  0
 21 48  1  0
 26 49  1  0
 27 50  1  0
 29 51  1  0
 29 52  1  0
 31 53  1  0
 32 54  1  0
 33 55  1  0
M  END
>  <Energy>  (739) 
-42.686941062620136

>  <compound_id>  (739) 
3695

>  <target_id>  (739) 
1

>  <reference_id>  (739) 
141

>  <inspiration_ids>  (739) 
[128, 141]

>  <energy_score>  (739) 
-31.364326574057884

>  <distance_score>  (739) 
1.2258191247907189

>  <path>  (739) 
/opt/xchem-fragalysis-2/maxwin/BulkDock/SCRATCH/505734/C3695-P141/C3695-P141.minimised.mol

>  <scratch_subdir>  (739) 
/opt/xchem-fragalysis-2/maxwin/BulkDock/SCRATCH/505734/C3695-P141

>  <fragmenstein_runtime>  (739) 
4.389374017715454

>  <fragmenstein_outcome>  (739) 
too moved

>  <fragmenstein_mode>  (739) 
expansion

>  <fragmenstein_error>  (739) 


$$$$
C3695-P128
     RDKit          2D

  0  0  0  0  0  0  0  0  0  0999 V2000
M  END
>  <compound_id>  (740) 
3695

>  <target_id>  (740) 
1

>  <reference_id>  (740) 
128

>  <inspiration_ids>  (740) 
[128, 142]

>  <energy_score>  (740) 
nan

>  <distance_score>  (740) 
nan

>  <path>  (740) 
/opt/xchem-fragalysis-2/maxwin/BulkDock/SCRATCH/505734/C3695-P128/C3695-P128.minimised.mol

>  <scratch_subdir>  (740) 
/opt/xchem-fragalysis-2/maxwin/BulkDock/SCRATCH/505734/C3695-P128

>  <fragmenstein_runtime>  (740) 
0.2705996036529541

>  <fragmenstein_outcome>  (740) 
too distant

>  <fragmenstein_mode>  (740) 
expansion

>  <fragmenstein_error>  (740) 
DistanceError: hit0+hit1

$$$$
C1616-P128
     RDKit          3D

 62 66  0  0  0  0  0  0  0  0999 V2000
    6.3227   -9.9304   34.6911 C   0  0  0  0  0  0  0  0  0  0  0  0
    5.0289   -9.1544   34.8760 C   0  0  0  0  0  0  0  0  0  0  0  0
    5.2790   -7.3840   35.0281 S   0  0  0  0  0  0  0  0  0  0  0  0
    6.3935   -7.0319   34.1724 O   0  0  0  0  0  0  0  0  0  0  0  0
    3.9147   -6.6215   35.0159 N   0  0  0  0  0  0  0  0  0  0  0  0
    3.7740   -5.1724   34.5388 C   0  0  0  0  0  0  0  0  0  0  0  0
    4.5935   -4.1916   35.1205 C   0  0  0  0  0  0  0  0  0  0  0  0
    4.5100   -2.8290   34.7692 C   0  0  0  0  0  0  0  0  0  0  0  0
    3.5756   -2.3990   33.8389 C   0  0  0  0  0  0  0  0  0  0  0  0
    3.5205   -1.0226   33.4692 N   0  0  0  0  0  0  0  0  0  0  0  0
    3.9301   -0.6259   31.8680 S   0  0  0  0  0  0  0  0  0  0  0  0
    2.4013    0.0946   31.3131 C   0  0  0  0  0  0  0  0  0  0  0  0
    4.1796   -1.8242   31.0976 O   0  0  0  0  0  0  0  0  0  0  0  0
    4.9110    0.4323   31.9748 O   0  0  0  0  0  0  0  0  0  0  0  0
    2.7105   -3.3283   33.2827 C   0  0  0  0  0  0  0  0  0  0  0  0
    2.7973   -4.7138   33.6047 C   0  0  0  0  0  0  0  0  0  0  0  0
    1.7850   -5.5240   32.8897 C   0  0  0  0  0  0  0  0  0  0  0  0
    1.6142   -5.4560   31.4256 C   0  0  0  0  0  0  0  0  0  0  0  0
    0.6067   -6.0769   30.7869 C   0  0  0  0  0  0  0  0  0  0  0  0
   -0.3118   -6.8526   31.5322 C   0  0  0  0  0  0  0  0  0  0  0  0
   -1.3187   -7.6173   31.1784 N   0  0  0  0  0  0  0  0  0  0  0  0
   -1.8750   -8.1132   32.3328 N   0  0  0  0  0  0  0  0  0  0  0  0
   -1.2152   -7.6345   33.3664 C   0  0  0  0  0  0  0  0  0  0  0  0
   -1.4425   -7.8839   34.6822 N   0  0  0  0  0  0  0  0  0  0  0  0
   -0.1692   -6.8603   32.9120 N   0  0  0  0  0  0  0  0  0  0  0  0
    0.8585   -6.2069   33.5899 C   0  0  0  0  0  0  0  0  0  0  0  0
    6.0287   -7.2116   36.5446 N   0  0  0  0  0  0  0  0  0  0  0  0
    5.8751   -8.1064   37.6967 C   0  0  0  0  0  0  0  0  0  0  0  0
    4.4941   -7.9975   38.2701 C   0  0  0  0  0  0  0  0  0  0  0  0
    3.8444   -9.0778   38.8827 C   0  0  0  0  0  0  0  0  0  0  0  0
    2.4727   -9.0017   39.1264 C   0  0  0  0  0  0  0  0  0  0  0  0
    1.7922   -7.9002   38.6565 C   0  0  0  0  0  0  0  0  0  0  0  0
    2.4474   -6.8058   38.1834 C   0  0  0  0  0  0  0  0  0  0  0  0
    3.8034   -6.7914   38.0885 C   0  0  0  0  0  0  0  0  0  0  0  0
    1.6182   -5.7983   37.8081 O   0  0  0  0  0  0  0  0  0  0  0  0
    0.3473   -6.4410   37.9850 C   0  0  0  0  0  0  0  0  0  0  0  0
    0.4485   -7.7319   38.6158 O   0  0  0  0  0  0  0  0  0  0  0  0
    6.8018   -9.6657   33.7425 H   0  0  0  0  0  0  0  0  0  0  0  0
    7.0442   -9.7370   35.4885 H   0  0  0  0  0  0  0  0  0  0  0  0
    6.1160  -11.0051   34.6702 H   0  0  0  0  0  0  0  0  0  0  0  0
    4.4201   -9.3470   34.0069 H   0  0  0  0  0  0  0  0  0  0  0  0
    4.4730   -9.5005   35.7481 H   0  0  0  0  0  0  0  0  0  0  0  0
    5.3330   -4.4835   35.8620 H   0  0  0  0  0  0  0  0  0  0  0  0
    5.1980   -2.1281   35.2351 H   0  0  0  0  0  0  0  0  0  0  0  0
    4.0214   -0.3865   34.0943 H   0  0  0  0  0  0  0  0  0  0  0  0
    2.5459    0.4417   30.2877 H   0  0  0  0  0  0  0  0  0  0  0  0
    1.6193   -0.6661   31.3399 H   0  0  0  0  0  0  0  0  0  0  0  0
    2.1512    0.9388   31.9583 H   0  0  0  0  0  0  0  0  0  0  0  0
    1.9526   -2.9788   32.5844 H   0  0  0  0  0  0  0  0  0  0  0  0
    2.3283   -4.8619   30.8582 H   0  0  0  0  0  0  0  0  0  0  0  0
    0.4823   -5.9958   29.7161 H   0  0  0  0  0  0  0  0  0  0  0  0
   -0.6284   -7.8812   35.2904 H   0  0  0  0  0  0  0  0  0  0  0  0
   -1.8289   -8.8363   34.8021 H   0  0  0  0  0  0  0  0  0  0  0  0
    0.8589   -6.2665   34.6711 H   0  0  0  0  0  0  0  0  0  0  0  0
    7.0146   -7.1269   36.3176 H   0  0  0  0  0  0  0  0  0  0  0  0
    6.1144   -9.1404   37.4365 H   0  0  0  0  0  0  0  0  0  0  0  0
    6.5846   -7.7978   38.4732 H   0  0  0  0  0  0  0  0  0  0  0  0
    4.3809   -9.9925   39.1187 H   0  0  0  0  0  0  0  0  0  0  0  0
    1.9353   -9.8131   39.5980 H   0  0  0  0  0  0  0  0  0  0  0  0
    4.2858   -5.8969   37.7105 H   0  0  0  0  0  0  0  0  0  0  0  0
   -0.2844   -5.7998   38.6102 H   0  0  0  0  0  0  0  0  0  0  0  0
   -0.1367   -6.5550   37.0099 H   0  0  0  0  0  0  0  0  0  0  0  0
  1  2  1  0
  2  3  1  0
  3  4  2  0
  3  5  2  0
  5  6  1  0
  6  7  2  0
  7  8  1  0
  8  9  2  0
  9 10  1  0
 10 11  1  0
 11 12  1  0
 11 13  2  0
 11 14  2  0
  9 15  1  0
 15 16  2  0
 16 17  1  0
 17 18  1  0
 18 19  2  0
 19 20  1  0
 20 21  2  0
 21 22  1  0
 22 23  2  0
 23 24  1  0
 23 25  1  0
 25 26  1  0
  3 27  1  0
 27 28  1  0
 28 29  1  0
 29 30  2  0
 30 31  1  0
 31 32  2  0
 32 33  1  0
 33 34  2  0
 33 35  1  0
 35 36  1  0
 36 37  1  0
 16  6  1  0
 26 17  2  0
 34 29  1  0
 25 20  1  0
 37 32  1  0
  1 38  1  0
  1 39  1  0
  1 40  1  0
  2 41  1  0
  2 42  1  0
  7 43  1  0
  8 44  1  0
 10 45  1  0
 12 46  1  0
 12 47  1  0
 12 48  1  0
 15 49  1  0
 18 50  1  0
 19 51  1  0
 24 52  1  0
 24 53  1  0
 26 54  1  0
 27 55  1  0
 28 56  1  0
 28 57  1  0
 30 58  1  0
 31 59  1  0
 34 60  1  0
 36 61  1  0
 36 62  1  0
M  END
>  <Energy>  (741) 
-67.641592709048851

>  <compound_id>  (741) 
1616

>  <target_id>  (741) 
1

>  <reference_id>  (741) 
128

>  <inspiration_ids>  (741) 
[128, 148]

>  <energy_score>  (741) 
-92.22737523729285

>  <distance_score>  (741) 
1.9402326789297168

>  <path>  (741) 
/opt/xchem-fragalysis-2/maxwin/BulkDock/SCRATCH/505734/C1616-P128/C1616-P128.minimised.mol

>  <scratch_subdir>  (741) 
/opt/xchem-fragalysis-2/maxwin/BulkDock/SCRATCH/505734/C1616-P128

>  <fragmenstein_runtime>  (741) 
4.55217719078064

>  <fragmenstein_outcome>  (741) 
too moved

>  <fragmenstein_mode>  (741) 
expansion

>  <fragmenstein_error>  (741) 


$$$$
C1616-P148
     RDKit          3D

 62 66  0  0  0  0  0  0  0  0999 V2000
    4.5941   -9.1712   34.8004 C   0  0  0  0  0  0  0  0  0  0  0  0
    3.4978   -8.3047   35.4024 C   0  0  0  0  0  0  0  0  0  0  0  0
    3.9729   -6.6272   35.6718 S   0  0  0  0  0  0  0  0  0  0  0  0
    3.1241   -6.0839   36.7037 O   0  0  0  0  0  0  0  0  0  0  0  0
    4.1166   -5.8977   34.3274 N   0  0  0  0  0  0  0  0  0  0  0  0
    3.5844   -4.5054   34.1565 C   0  0  0  0  0  0  0  0  0  0  0  0
    4.3432   -3.4521   34.6848 C   0  0  0  0  0  0  0  0  0  0  0  0
    3.9640   -2.1122   34.5093 C   0  0  0  0  0  0  0  0  0  0  0  0
    2.8102   -1.8010   33.7989 C   0  0  0  0  0  0  0  0  0  0  0  0
    2.4104   -0.4421   33.6782 N   0  0  0  0  0  0  0  0  0  0  0  0
    0.9696    0.0672   34.3950 S   0  0  0  0  0  0  0  0  0  0  0  0
    1.2815   -0.2258   36.1256 C   0  0  0  0  0  0  0  0  0  0  0  0
   -0.1177   -0.7869   33.9727 O   0  0  0  0  0  0  0  0  0  0  0  0
    0.9144    1.5005   34.2025 O   0  0  0  0  0  0  0  0  0  0  0  0
    2.0473   -2.8280   33.2550 C   0  0  0  0  0  0  0  0  0  0  0  0
    2.4168   -4.1839   33.4255 C   0  0  0  0  0  0  0  0  0  0  0  0
    1.5181   -5.1525   32.7703 C   0  0  0  0  0  0  0  0  0  0  0  0
    1.3907   -5.2299   31.3100 C   0  0  0  0  0  0  0  0  0  0  0  0
    0.4854   -6.0242   30.7133 C   0  0  0  0  0  0  0  0  0  0  0  0
   -0.3602   -6.8368   31.5053 C   0  0  0  0  0  0  0  0  0  0  0  0
   -1.2645   -7.7379   31.1970 N   0  0  0  0  0  0  0  0  0  0  0  0
   -1.8030   -8.1944   32.3747 N   0  0  0  0  0  0  0  0  0  0  0  0
   -1.2246   -7.5704   33.3785 C   0  0  0  0  0  0  0  0  0  0  0  0
   -1.4509   -7.7735   34.7000 N   0  0  0  0  0  0  0  0  0  0  0  0
   -0.2671   -6.7065   32.8832 N   0  0  0  0  0  0  0  0  0  0  0  0
    0.6568   -5.8748   33.5174 C   0  0  0  0  0  0  0  0  0  0  0  0
    5.5605   -6.6796   36.3029 N   0  0  0  0  0  0  0  0  0  0  0  0
    6.1521   -7.6965   37.2046 C   0  0  0  0  0  0  0  0  0  0  0  0
    5.2281   -8.1020   38.3191 C   0  0  0  0  0  0  0  0  0  0  0  0
    4.8904   -9.4509   38.5217 C   0  0  0  0  0  0  0  0  0  0  0  0
    3.6469   -9.7594   39.0610 C   0  0  0  0  0  0  0  0  0  0  0  0
    2.7821   -8.7110   39.2707 C   0  0  0  0  0  0  0  0  0  0  0  0
    3.2200   -7.4182   39.3002 C   0  0  0  0  0  0  0  0  0  0  0  0
    4.4959   -7.0914   38.9473 C   0  0  0  0  0  0  0  0  0  0  0  0
    2.2175   -6.5253   39.5276 O   0  0  0  0  0  0  0  0  0  0  0  0
    1.0849   -7.3843   39.3188 C   0  0  0  0  0  0  0  0  0  0  0  0
    1.4337   -8.7779   39.3940 O   0  0  0  0  0  0  0  0  0  0  0  0
    4.9846   -9.8696   35.5463 H   0  0  0  0  0  0  0  0  0  0  0  0
    4.2231   -9.7882   33.9863 H   0  0  0  0  0  0  0  0  0  0  0  0
    5.4366   -8.6009   34.4002 H   0  0  0  0  0  0  0  0  0  0  0  0
    2.5837   -8.2700   34.8135 H   0  0  0  0  0  0  0  0  0  0  0  0
    3.1981   -8.6978   36.3717 H   0  0  0  0  0  0  0  0  0  0  0  0
    5.2533   -3.6745   35.2371 H   0  0  0  0  0  0  0  0  0  0  0  0
    4.5821   -1.3305   34.9432 H   0  0  0  0  0  0  0  0  0  0  0  0
    3.1352    0.2755   33.7132 H   0  0  0  0  0  0  0  0  0  0  0  0
    0.4319    0.1681   36.6882 H   0  0  0  0  0  0  0  0  0  0  0  0
    1.3707   -1.2988   36.3020 H   0  0  0  0  0  0  0  0  0  0  0  0
    2.1920    0.3014   36.4164 H   0  0  0  0  0  0  0  0  0  0  0  0
    1.1498   -2.5794   32.6881 H   0  0  0  0  0  0  0  0  0  0  0  0
    2.0350   -4.5928   30.7084 H   0  0  0  0  0  0  0  0  0  0  0  0
    0.3772   -6.0434   29.6388 H   0  0  0  0  0  0  0  0  0  0  0  0
   -0.7279   -7.5119   35.3616 H   0  0  0  0  0  0  0  0  0  0  0  0
   -1.7423   -8.7453   34.8774 H   0  0  0  0  0  0  0  0  0  0  0  0
    0.6245   -5.8288   34.5991 H   0  0  0  0  0  0  0  0  0  0  0  0
    6.1758   -6.5141   35.5149 H   0  0  0  0  0  0  0  0  0  0  0  0
    6.4784   -8.5655   36.6270 H   0  0  0  0  0  0  0  0  0  0  0  0
    7.0576   -7.2676   37.6497 H   0  0  0  0  0  0  0  0  0  0  0  0
    5.5185  -10.2514   38.1396 H   0  0  0  0  0  0  0  0  0  0  0  0
    3.3250  -10.7817   39.1866 H   0  0  0  0  0  0  0  0  0  0  0  0
    4.7679   -6.0430   38.8601 H   0  0  0  0  0  0  0  0  0  0  0  0
    0.3388   -7.1716   40.0922 H   0  0  0  0  0  0  0  0  0  0  0  0
    0.6403   -7.1736   38.3373 H   0  0  0  0  0  0  0  0  0  0  0  0
  1  2  1  0
  2  3  1  0
  3  4  2  0
  3  5  2  0
  5  6  1  0
  6  7  2  0
  7  8  1  0
  8  9  2  0
  9 10  1  0
 10 11  1  0
 11 12  1  0
 11 13  2  0
 11 14  2  0
  9 15  1  0
 15 16  2  0
 16 17  1  0
 17 18  1  0
 18 19  2  0
 19 20  1  0
 20 21  2  0
 21 22  1  0
 22 23  2  0
 23 24  1  0
 23 25  1  0
 25 26  1  0
  3 27  1  0
 27 28  1  0
 28 29  1  0
 29 30  2  0
 30 31  1  0
 31 32  2  0
 32 33  1  0
 33 34  2  0
 33 35  1  0
 35 36  1  0
 36 37  1  0
 16  6  1  0
 26 17  2  0
 34 29  1  0
 25 20  1  0
 37 32  1  0
  1 38  1  0
  1 39  1  0
  1 40  1  0
  2 41  1  0
  2 42  1  0
  7 43  1  0
  8 44  1  0
 10 45  1  0
 12 46  1  0
 12 47  1  0
 12 48  1  0
 15 49  1  0
 18 50  1  0
 19 51  1  0
 24 52  1  0
 24 53  1  0
 26 54  1  0
 27 55  1  0
 28 56  1  0
 28 57  1  0
 30 58  1  0
 31 59  1  0
 34 60  1  0
 36 61  1  0
 36 62  1  0
M  END
>  <Energy>  (742) 
-57.208747593723864

>  <compound_id>  (742) 
1616

>  <target_id>  (742) 
1

>  <reference_id>  (742) 
148

>  <inspiration_ids>  (742) 
[128, 148]

>  <energy_score>  (742) 
-81.79453012196487

>  <distance_score>  (742) 
1.9286185799218847

>  <path>  (742) 
/opt/xchem-fragalysis-2/maxwin/BulkDock/SCRATCH/505734/C1616-P148/C1616-P148.minimised.mol

>  <scratch_subdir>  (742) 
/opt/xchem-fragalysis-2/maxwin/BulkDock/SCRATCH/505734/C1616-P148

>  <fragmenstein_runtime>  (742) 
4.468752861022949

>  <fragmenstein_outcome>  (742) 
too moved

>  <fragmenstein_mode>  (742) 
expansion

>  <fragmenstein_error>  (742) 


$$$$
C3698-P128
     RDKit          3D

 49 52  0  0  0  0  0  0  0  0999 V2000
    7.2410   -2.3737   35.6585 C   0  0  0  0  0  0  0  0  0  0  0  0
    6.0696   -3.5991   36.1989 S   0  0  0  0  0  0  0  0  0  0  0  0
    5.9337   -4.6141   35.1769 O   0  0  0  0  0  0  0  0  0  0  0  0
    6.3996   -3.9567   37.5620 O   0  0  0  0  0  0  0  0  0  0  0  0
    4.6607   -2.6790   36.3063 N   0  0  0  0  0  0  0  0  0  0  0  0
    3.8091   -2.5712   35.1727 C   0  0  0  0  0  0  0  0  0  0  0  0
    3.5652   -1.3042   34.6538 C   0  0  0  0  0  0  0  0  0  0  0  0
    2.7015   -1.1561   33.5749 C   0  0  0  0  0  0  0  0  0  0  0  0
    2.0758   -2.2756   33.0268 C   0  0  0  0  0  0  0  0  0  0  0  0
    2.2939   -3.5625   33.5483 C   0  0  0  0  0  0  0  0  0  0  0  0
    1.7203   -4.8312   32.9263 C   0  0  0  0  0  0  0  0  0  0  0  0
    1.5768   -4.7034   31.3902 C   0  0  0  0  0  0  0  0  0  0  0  0
    0.1228   -4.7784   30.8905 C   0  0  0  0  0  0  0  0  0  0  0  0
   -0.7608   -3.5745   31.2900 C   0  0  0  0  0  0  0  0  0  0  0  0
   -0.6765   -2.5795   30.1356 C   0  0  0  0  0  0  0  0  0  0  0  0
    0.2584   -3.1725   29.1832 N   0  0  0  0  0  0  0  0  0  0  0  0
    0.1227   -4.6214   29.3808 C   0  0  0  0  0  0  0  0  0  0  0  0
   -0.4220   -6.0553   31.4410 C   0  0  0  0  0  0  0  0  0  0  0  0
   -1.0043   -7.0862   30.8715 N   0  0  0  0  0  0  0  0  0  0  0  0
   -1.4393   -7.9170   31.8874 N   0  0  0  0  0  0  0  0  0  0  0  0
   -1.0887   -7.3858   33.0414 C   0  0  0  0  0  0  0  0  0  0  0  0
   -1.4004   -7.7731   34.2917 N   0  0  0  0  0  0  0  0  0  0  0  0
   -0.3080   -6.2946   32.7920 N   0  0  0  0  0  0  0  0  0  0  0  0
    0.4496   -5.3967   33.6630 C   0  0  0  0  0  0  0  0  0  0  0  0
    0.8205   -6.1285   34.8888 N   0  0  0  0  0  0  0  0  0  0  0  0
    3.1526   -3.6854   34.6497 C   0  0  0  0  0  0  0  0  0  0  0  0
    7.2596   -1.5564   36.3818 H   0  0  0  0  0  0  0  0  0  0  0  0
    6.9511   -2.0170   34.6685 H   0  0  0  0  0  0  0  0  0  0  0  0
    8.2238   -2.8474   35.6084 H   0  0  0  0  0  0  0  0  0  0  0  0
    4.1984   -2.8072   37.2083 H   0  0  0  0  0  0  0  0  0  0  0  0
    4.0481   -0.4299   35.0814 H   0  0  0  0  0  0  0  0  0  0  0  0
    2.5197   -0.1700   33.1535 H   0  0  0  0  0  0  0  0  0  0  0  0
    1.4439   -2.1032   32.1615 H   0  0  0  0  0  0  0  0  0  0  0  0
    2.5156   -5.5865   33.0396 H   0  0  0  0  0  0  0  0  0  0  0  0
    2.1164   -5.5590   30.9535 H   0  0  0  0  0  0  0  0  0  0  0  0
    2.1110   -3.8370   30.9851 H   0  0  0  0  0  0  0  0  0  0  0  0
   -1.8068   -3.8759   31.4075 H   0  0  0  0  0  0  0  0  0  0  0  0
   -0.4766   -3.1115   32.2358 H   0  0  0  0  0  0  0  0  0  0  0  0
   -1.6627   -2.4481   29.6766 H   0  0  0  0  0  0  0  0  0  0  0  0
   -0.3222   -1.5988   30.4658 H   0  0  0  0  0  0  0  0  0  0  0  0
   -0.0302   -2.9162   28.2344 H   0  0  0  0  0  0  0  0  0  0  0  0
    0.9641   -5.1401   28.9153 H   0  0  0  0  0  0  0  0  0  0  0  0
   -0.8156   -4.9547   28.9399 H   0  0  0  0  0  0  0  0  0  0  0  0
   -1.6139   -8.7729   34.4214 H   0  0  0  0  0  0  0  0  0  0  0  0
   -0.7815   -7.4546   35.0387 H   0  0  0  0  0  0  0  0  0  0  0  0
   -0.2439   -4.5940   33.9384 H   0  0  0  0  0  0  0  0  0  0  0  0
    1.6180   -6.7336   34.7092 H   0  0  0  0  0  0  0  0  0  0  0  0
    1.1227   -5.4529   35.5913 H   0  0  0  0  0  0  0  0  0  0  0  0
    3.3572   -4.6647   35.0761 H   0  0  0  0  0  0  0  0  0  0  0  0
  1  2  1  0
  2  3  2  0
  2  4  2  0
  2  5  1  0
  5  6  1  0
  6  7  2  0
  7  8  1  0
  8  9  2  0
  9 10  1  0
 10 11  1  0
 11 12  1  0
 12 13  1  0
 13 14  1  0
 14 15  1  0
 15 16  1  0
 16 17  1  0
 13 18  1  0
 18 19  2  0
 19 20  1  0
 20 21  2  0
 21 22  1  0
 21 23  1  0
 23 24  1  0
 24 25  1  0
 10 26  2  0
 26  6  1  0
 24 11  1  0
 17 13  1  0
 23 18  1  0
  1 27  1  0
  1 28  1  0
  1 29  1  0
  5 30  1  0
  7 31  1  0
  8 32  1  0
  9 33  1  0
 11 34  1  0
 12 35  1  0
 12 36  1  0
 14 37  1  0
 14 38  1  0
 15 39  1  0
 15 40  1  0
 16 41  1  0
 17 42  1  0
 17 43  1  0
 22 44  1  0
 22 45  1  0
 24 46  1  0
 25 47  1  0
 25 48  1  0
 26 49  1  0
M  END
>  <Energy>  (743) 
5.6445928651530011

>  <compound_id>  (743) 
3698

>  <target_id>  (743) 
1

>  <reference_id>  (743) 
128

>  <inspiration_ids>  (743) 
[128, 150]

>  <energy_score>  (743) 
-53.28247981634803

>  <distance_score>  (743) 
0.9602452291789672

>  <path>  (743) 
/opt/xchem-fragalysis-2/maxwin/BulkDock/SCRATCH/505734/C3698-P128/C3698-P128.minimised.mol

>  <scratch_subdir>  (743) 
/opt/xchem-fragalysis-2/maxwin/BulkDock/SCRATCH/505734/C3698-P128

>  <fragmenstein_runtime>  (743) 
2.4522881507873535

>  <fragmenstein_outcome>  (743) 
acceptable

>  <fragmenstein_mode>  (743) 
expansion

>  <fragmenstein_error>  (743) 


$$$$
C3698-P150
     RDKit          3D

 49 52  0  0  0  0  0  0  0  0999 V2000
    7.5222   -2.3536   34.1286 C   0  0  0  0  0  0  0  0  0  0  0  0
    6.5679   -3.7353   34.7161 S   0  0  0  0  0  0  0  0  0  0  0  0
    6.0305   -4.4578   33.5835 O   0  0  0  0  0  0  0  0  0  0  0  0
    7.3462   -4.4128   35.7309 O   0  0  0  0  0  0  0  0  0  0  0  0
    5.3372   -2.9451   35.5531 N   0  0  0  0  0  0  0  0  0  0  0  0
    4.1081   -2.6489   34.9035 C   0  0  0  0  0  0  0  0  0  0  0  0
    3.6631   -1.3313   34.9126 C   0  0  0  0  0  0  0  0  0  0  0  0
    2.4282   -1.0113   34.3559 C   0  0  0  0  0  0  0  0  0  0  0  0
    1.6348   -2.0109   33.7976 C   0  0  0  0  0  0  0  0  0  0  0  0
    2.0778   -3.3420   33.7661 C   0  0  0  0  0  0  0  0  0  0  0  0
    1.3833   -4.4136   32.9532 C   0  0  0  0  0  0  0  0  0  0  0  0
    0.6661   -3.7843   31.7567 C   0  0  0  0  0  0  0  0  0  0  0  0
    0.3890   -4.8357   30.6762 C   0  0  0  0  0  0  0  0  0  0  0  0
   -0.5366   -4.1965   29.6524 C   0  0  0  0  0  0  0  0  0  0  0  0
    0.3715   -3.2853   28.8533 C   0  0  0  0  0  0  0  0  0  0  0  0
    1.6541   -3.9961   28.7705 N   0  0  0  0  0  0  0  0  0  0  0  0
    1.6515   -5.0311   29.8229 C   0  0  0  0  0  0  0  0  0  0  0  0
   -0.1725   -6.0834   31.3193 C   0  0  0  0  0  0  0  0  0  0  0  0
   -0.7591   -7.1189   30.7510 N   0  0  0  0  0  0  0  0  0  0  0  0
   -1.2861   -7.9131   31.7519 N   0  0  0  0  0  0  0  0  0  0  0  0
   -0.9926   -7.3707   32.9134 C   0  0  0  0  0  0  0  0  0  0  0  0
   -1.3550   -7.7508   34.1555 N   0  0  0  0  0  0  0  0  0  0  0  0
   -0.2027   -6.2724   32.6923 N   0  0  0  0  0  0  0  0  0  0  0  0
    0.3921   -5.3580   33.6727 C   0  0  0  0  0  0  0  0  0  0  0  0
    1.0616   -6.1775   34.7008 N   0  0  0  0  0  0  0  0  0  0  0  0
    3.3015   -3.6539   34.3745 C   0  0  0  0  0  0  0  0  0  0  0  0
    7.8399   -1.7522   34.9822 H   0  0  0  0  0  0  0  0  0  0  0  0
    6.9109   -1.7677   33.4399 H   0  0  0  0  0  0  0  0  0  0  0  0
    8.3966   -2.7470   33.6055 H   0  0  0  0  0  0  0  0  0  0  0  0
    5.2740   -3.2602   36.5228 H   0  0  0  0  0  0  0  0  0  0  0  0
    4.2712   -0.5474   35.3564 H   0  0  0  0  0  0  0  0  0  0  0  0
    2.0804    0.0194   34.3631 H   0  0  0  0  0  0  0  0  0  0  0  0
    0.6826   -1.7136   33.3632 H   0  0  0  0  0  0  0  0  0  0  0  0
    2.1965   -5.0337   32.5494 H   0  0  0  0  0  0  0  0  0  0  0  0
    1.2695   -2.9653   31.3449 H   0  0  0  0  0  0  0  0  0  0  0  0
   -0.2793   -3.3337   32.0938 H   0  0  0  0  0  0  0  0  0  0  0  0
   -0.9430   -4.9608   28.9921 H   0  0  0  0  0  0  0  0  0  0  0  0
   -1.3706   -3.6432   30.0957 H   0  0  0  0  0  0  0  0  0  0  0  0
   -0.0492   -3.0707   27.8753 H   0  0  0  0  0  0  0  0  0  0  0  0
    0.5076   -2.3237   29.3608 H   0  0  0  0  0  0  0  0  0  0  0  0
    2.4179   -3.3341   28.9063 H   0  0  0  0  0  0  0  0  0  0  0  0
    2.5682   -4.9152   30.4017 H   0  0  0  0  0  0  0  0  0  0  0  0
    1.6842   -6.0192   29.3588 H   0  0  0  0  0  0  0  0  0  0  0  0
   -1.6366   -8.7335   34.2710 H   0  0  0  0  0  0  0  0  0  0  0  0
   -0.7124   -7.5039   34.9088 H   0  0  0  0  0  0  0  0  0  0  0  0
   -0.4384   -4.8032   34.1247 H   0  0  0  0  0  0  0  0  0  0  0  0
    1.9484   -6.5199   34.3375 H   0  0  0  0  0  0  0  0  0  0  0  0
    1.3045   -5.5629   35.4807 H   0  0  0  0  0  0  0  0  0  0  0  0
    3.6627   -4.6794   34.3754 H   0  0  0  0  0  0  0  0  0  0  0  0
  1  2  1  0
  2  3  2  0
  2  4  2  0
  2  5  1  0
  5  6  1  0
  6  7  2  0
  7  8  1  0
  8  9  2  0
  9 10  1  0
 10 11  1  0
 11 12  1  0
 12 13  1  0
 13 14  1  0
 14 15  1  0
 15 16  1  0
 16 17  1  0
 13 18  1  0
 18 19  2  0
 19 20  1  0
 20 21  2  0
 21 22  1  0
 21 23  1  0
 23 24  1  0
 24 25  1  0
 10 26  2  0
 26  6  1  0
 24 11  1  0
 17 13  1  0
 23 18  1  0
  1 27  1  0
  1 28  1  0
  1 29  1  0
  5 30  1  0
  7 31  1  0
  8 32  1  0
  9 33  1  0
 11 34  1  0
 12 35  1  0
 12 36  1  0
 14 37  1  0
 14 38  1  0
 15 39  1  0
 15 40  1  0
 16 41  1  0
 17 42  1  0
 17 43  1  0
 22 44  1  0
 22 45  1  0
 24 46  1  0
 25 47  1  0
 25 48  1  0
 26 49  1  0
M  END
>  <Energy>  (744) 
4.390341103994265

>  <compound_id>  (744) 
3698

>  <target_id>  (744) 
1

>  <reference_id>  (744) 
150

>  <inspiration_ids>  (744) 
[128, 150]

>  <energy_score>  (744) 
-54.536731577504355

>  <distance_score>  (744) 
1.154806524912539

>  <path>  (744) 
/opt/xchem-fragalysis-2/maxwin/BulkDock/SCRATCH/505734/C3698-P150/C3698-P150.minimised.mol

>  <scratch_subdir>  (744) 
/opt/xchem-fragalysis-2/maxwin/BulkDock/SCRATCH/505734/C3698-P150

>  <fragmenstein_runtime>  (744) 
2.3615171909332275

>  <fragmenstein_outcome>  (744) 
too moved

>  <fragmenstein_mode>  (744) 
expansion

>  <fragmenstein_error>  (744) 


$$$$
C3705-P128
     RDKit          3D

 56 59  0  0  0  0  0  0  0  0999 V2000
   -0.2645   -6.9428   37.2269 C   0  0  0  0  0  0  0  0  0  0  0  0
    0.4112   -6.5787   35.9142 C   0  0  0  0  0  0  0  0  0  0  0  0
    1.8709   -7.0465   36.0511 C   0  0  0  0  0  0  0  0  0  0  0  0
    0.2456   -5.1627   35.8381 O   0  0  0  0  0  0  0  0  0  0  0  0
    1.0975   -4.4193   34.9925 C   0  0  0  0  0  0  0  0  0  0  0  0
    0.9778   -3.0835   35.4555 O   0  0  0  0  0  0  0  0  0  0  0  0
    0.6872   -4.5012   33.5123 C   0  0  0  0  0  0  0  0  0  0  0  0
    1.6479   -3.9170   32.4507 C   0  0  0  0  0  0  0  0  0  0  0  0
    2.3660   -2.6678   32.8668 C   0  0  0  0  0  0  0  0  0  0  0  0
    3.5831   -2.8057   33.5609 C   0  0  0  0  0  0  0  0  0  0  0  0
    4.2647   -1.6917   34.0350 C   0  0  0  0  0  0  0  0  0  0  0  0
    3.7491   -0.4216   33.8028 C   0  0  0  0  0  0  0  0  0  0  0  0
    2.5451   -0.2740   33.1182 C   0  0  0  0  0  0  0  0  0  0  0  0
    2.0424    1.0342   32.8498 N   0  0  0  0  0  0  0  0  0  0  0  0
    2.6435    1.8202   31.4752 S   0  0  0  0  0  0  0  0  0  0  0  0
    3.7815    2.9714   32.2121 C   0  0  0  0  0  0  0  0  0  0  0  0
    1.5300    2.5854   30.9548 O   0  0  0  0  0  0  0  0  0  0  0  0
    3.3823    0.8988   30.6420 O   0  0  0  0  0  0  0  0  0  0  0  0
    1.8535   -1.3882   32.6464 C   0  0  0  0  0  0  0  0  0  0  0  0
    0.9103   -3.8528   31.0814 C   0  0  0  0  0  0  0  0  0  0  0  0
   -0.0579   -5.0327   30.8796 C   0  0  0  0  0  0  0  0  0  0  0  0
    0.4729   -6.2353   31.6380 C   0  0  0  0  0  0  0  0  0  0  0  0
   -0.2615   -7.5399   31.6580 C   0  0  0  0  0  0  0  0  0  0  0  0
   -0.6655   -8.1396   29.9309 Br  0  0  0  0  0  0  0  0  0  0  0  0
   -1.3503   -7.4364   32.6767 C   0  0  0  0  0  0  0  0  0  0  0  0
   -0.7134   -6.5764   33.7755 C   0  0  0  0  0  0  0  0  0  0  0  0
   -0.2710   -7.3366   34.8914 O   0  0  0  0  0  0  0  0  0  0  0  0
    0.5267   -5.9621   33.1304 C   0  0  0  0  0  0  0  0  0  0  0  0
   -0.2633   -8.0247   37.3817 H   0  0  0  0  0  0  0  0  0  0  0  0
    0.2176   -6.4585   38.0836 H   0  0  0  0  0  0  0  0  0  0  0  0
   -1.2943   -6.5847   37.2062 H   0  0  0  0  0  0  0  0  0  0  0  0
    1.9230   -8.1160   36.2724 H   0  0  0  0  0  0  0  0  0  0  0  0
    2.4548   -6.9068   35.1392 H   0  0  0  0  0  0  0  0  0  0  0  0
    2.3880   -6.4970   36.8457 H   0  0  0  0  0  0  0  0  0  0  0  0
    2.1408   -4.7067   35.1395 H   0  0  0  0  0  0  0  0  0  0  0  0
    0.0221   -2.9079   35.4590 H   0  0  0  0  0  0  0  0  0  0  0  0
   -0.2745   -3.9749   33.4177 H   0  0  0  0  0  0  0  0  0  0  0  0
    2.4577   -4.6491   32.2977 H   0  0  0  0  0  0  0  0  0  0  0  0
    4.0059   -3.7893   33.7529 H   0  0  0  0  0  0  0  0  0  0  0  0
    5.1973   -1.8102   34.5793 H   0  0  0  0  0  0  0  0  0  0  0  0
    4.2829    0.4471   34.1740 H   0  0  0  0  0  0  0  0  0  0  0  0
    1.0231    1.1083   32.8469 H   0  0  0  0  0  0  0  0  0  0  0  0
    4.1772    3.6069   31.4167 H   0  0  0  0  0  0  0  0  0  0  0  0
    4.5971    2.4201   32.6819 H   0  0  0  0  0  0  0  0  0  0  0  0
    3.2470    3.5828   32.9415 H   0  0  0  0  0  0  0  0  0  0  0  0
    0.9151   -1.2428   32.1224 H   0  0  0  0  0  0  0  0  0  0  0  0
    1.6603   -3.8489   30.2796 H   0  0  0  0  0  0  0  0  0  0  0  0
    0.3324   -2.9312   30.9610 H   0  0  0  0  0  0  0  0  0  0  0  0
   -1.0499   -4.7531   31.2524 H   0  0  0  0  0  0  0  0  0  0  0  0
   -0.1585   -5.2258   29.8083 H   0  0  0  0  0  0  0  0  0  0  0  0
    1.4853   -6.4125   31.2571 H   0  0  0  0  0  0  0  0  0  0  0  0
    0.4048   -8.2746   32.0595 H   0  0  0  0  0  0  0  0  0  0  0  0
   -2.1758   -6.9124   32.2173 H   0  0  0  0  0  0  0  0  0  0  0  0
   -1.7033   -8.4055   33.0332 H   0  0  0  0  0  0  0  0  0  0  0  0
   -1.4499   -5.8444   34.1175 H   0  0  0  0  0  0  0  0  0  0  0  0
    1.4228   -6.5000   33.4596 H   0  0  0  0  0  0  0  0  0  0  0  0
  1  2  1  0
  2  3  1  0
  2  4  1  0
  4  5  1  0
  5  6  1  0
  5  7  1  0
  7  8  1  0
  8  9  1  0
  9 10  2  0
 10 11  1  0
 11 12  2  0
 12 13  1  0
 13 14  1  0
 14 15  1  0
 15 16  1  0
 15 17  2  0
 15 18  2  0
 13 19  2  0
  8 20  1  0
 20 21  1  0
 21 22  1  0
 22 23  1  0
 23 24  1  0
 23 25  1  0
 25 26  1  0
 26 27  1  0
 26 28  1  0
 27  2  1  0
 28  7  1  0
 19  9  1  0
 28 22  1  0
  1 29  1  0
  1 30  1  0
  1 31  1  0
  3 32  1  0
  3 33  1  0
  3 34  1  0
  5 35  1  0
  6 36  1  0
  7 37  1  0
  8 38  1  0
 10 39  1  0
 11 40  1  0
 12 41  1  0
 14 42  1  0
 16 43  1  0
 16 44  1  0
 16 45  1  0
 19 46  1  0
 20 47  1  0
 20 48  1  0
 21 49  1  0
 21 50  1  0
 22 51  1  0
 23 52  1  0
 25 53  1  0
 25 54  1  0
 26 55  1  0
 28 56  1  0
M  END
>  <Energy>  (745) 
1.668665051466939

>  <compound_id>  (745) 
3705

>  <target_id>  (745) 
1

>  <reference_id>  (745) 
128

>  <inspiration_ids>  (745) 
[128, 162]

>  <energy_score>  (745) 
-75.80047893369773

>  <distance_score>  (745) 
1.4005462015483943

>  <path>  (745) 
/opt/xchem-fragalysis-2/maxwin/BulkDock/SCRATCH/505734/C3705-P128/C3705-P128.minimised.mol

>  <scratch_subdir>  (745) 
/opt/xchem-fragalysis-2/maxwin/BulkDock/SCRATCH/505734/C3705-P128

>  <fragmenstein_runtime>  (745) 
3.769397497177124

>  <fragmenstein_outcome>  (745) 
too moved

>  <fragmenstein_mode>  (745) 
expansion

>  <fragmenstein_error>  (745) 


$$$$
C3705-P162
     RDKit          3D

 56 59  0  0  0  0  0  0  0  0999 V2000
   -0.1278   -7.0669   37.4116 C   0  0  0  0  0  0  0  0  0  0  0  0
    0.6020   -6.7099   36.1207 C   0  0  0  0  0  0  0  0  0  0  0  0
    2.0573   -7.1666   36.2910 C   0  0  0  0  0  0  0  0  0  0  0  0
    0.4522   -5.2921   36.0183 O   0  0  0  0  0  0  0  0  0  0  0  0
    1.2870   -4.5669   35.1367 C   0  0  0  0  0  0  0  0  0  0  0  0
    1.2261   -3.2332   35.6161 O   0  0  0  0  0  0  0  0  0  0  0  0
    0.8103   -4.6252   33.6715 C   0  0  0  0  0  0  0  0  0  0  0  0
    1.7208   -4.0205   32.5765 C   0  0  0  0  0  0  0  0  0  0  0  0
    2.4200   -2.7506   32.9649 C   0  0  0  0  0  0  0  0  0  0  0  0
    3.6694   -2.8534   33.6028 C   0  0  0  0  0  0  0  0  0  0  0  0
    4.3411   -1.7191   34.0426 C   0  0  0  0  0  0  0  0  0  0  0  0
    3.7825   -0.4633   33.8322 C   0  0  0  0  0  0  0  0  0  0  0  0
    2.5443   -0.3500   33.2061 C   0  0  0  0  0  0  0  0  0  0  0  0
    1.9943    0.9434   32.9609 N   0  0  0  0  0  0  0  0  0  0  0  0
    2.4914    1.7328   31.5472 S   0  0  0  0  0  0  0  0  0  0  0  0
    3.6597    2.9028   32.2027 C   0  0  0  0  0  0  0  0  0  0  0  0
    1.3342    2.4800   31.1006 O   0  0  0  0  0  0  0  0  0  0  0  0
    3.1850    0.8182   30.6690 O   0  0  0  0  0  0  0  0  0  0  0  0
    1.8619   -1.4844   32.7706 C   0  0  0  0  0  0  0  0  0  0  0  0
    0.9475   -3.9581   31.2289 C   0  0  0  0  0  0  0  0  0  0  0  0
   -0.0477   -5.1144   31.0613 C   0  0  0  0  0  0  0  0  0  0  0  0
    0.4756   -6.3368   31.7893 C   0  0  0  0  0  0  0  0  0  0  0  0
   -0.3189   -7.6039   31.8296 C   0  0  0  0  0  0  0  0  0  0  0  0
   -0.9477   -8.1517   30.1529 Br  0  0  0  0  0  0  0  0  0  0  0  0
   -1.2692   -7.5475   32.9734 C   0  0  0  0  0  0  0  0  0  0  0  0
   -0.5448   -6.7079   34.0133 C   0  0  0  0  0  0  0  0  0  0  0  0
   -0.0241   -7.4841   35.0775 O   0  0  0  0  0  0  0  0  0  0  0  0
    0.6411   -6.0849   33.2824 C   0  0  0  0  0  0  0  0  0  0  0  0
   -1.1634   -6.7291   37.3484 H   0  0  0  0  0  0  0  0  0  0  0  0
   -0.1273   -8.1462   37.5849 H   0  0  0  0  0  0  0  0  0  0  0  0
    0.3153   -6.5651   38.2790 H   0  0  0  0  0  0  0  0  0  0  0  0
    2.5772   -6.5660   37.0450 H   0  0  0  0  0  0  0  0  0  0  0  0
    2.6252   -7.0896   35.3597 H   0  0  0  0  0  0  0  0  0  0  0  0
    2.1083   -8.2189   36.5847 H   0  0  0  0  0  0  0  0  0  0  0  0
    2.3283   -4.8838   35.2302 H   0  0  0  0  0  0  0  0  0  0  0  0
    0.2780   -3.0222   35.6417 H   0  0  0  0  0  0  0  0  0  0  0  0
   -0.1571   -4.1029   33.6276 H   0  0  0  0  0  0  0  0  0  0  0  0
    2.5367   -4.7395   32.3964 H   0  0  0  0  0  0  0  0  0  0  0  0
    4.1267   -3.8246   33.7781 H   0  0  0  0  0  0  0  0  0  0  0  0
    5.3004   -1.8114   34.5441 H   0  0  0  0  0  0  0  0  0  0  0  0
    4.3100    0.4201   34.1767 H   0  0  0  0  0  0  0  0  0  0  0  0
    0.9753    0.9933   33.0194 H   0  0  0  0  0  0  0  0  0  0  0  0
    3.9914    3.5412   31.3807 H   0  0  0  0  0  0  0  0  0  0  0  0
    4.5131    2.3648   32.6175 H   0  0  0  0  0  0  0  0  0  0  0  0
    3.1669    3.5089   32.9651 H   0  0  0  0  0  0  0  0  0  0  0  0
    0.8950   -1.3644   32.2944 H   0  0  0  0  0  0  0  0  0  0  0  0
    1.6769   -3.9771   30.4083 H   0  0  0  0  0  0  0  0  0  0  0  0
    0.3847   -3.0278   31.1072 H   0  0  0  0  0  0  0  0  0  0  0  0
   -1.0220   -4.8170   31.4642 H   0  0  0  0  0  0  0  0  0  0  0  0
   -0.1807   -5.2990   29.9919 H   0  0  0  0  0  0  0  0  0  0  0  0
    1.4546   -6.5557   31.3439 H   0  0  0  0  0  0  0  0  0  0  0  0
    0.3440   -8.3719   32.1378 H   0  0  0  0  0  0  0  0  0  0  0  0
   -2.1252   -7.0159   32.6241 H   0  0  0  0  0  0  0  0  0  0  0  0
   -1.5855   -8.5271   33.3367 H   0  0  0  0  0  0  0  0  0  0  0  0
   -1.2445   -5.9811   34.4244 H   0  0  0  0  0  0  0  0  0  0  0  0
    1.5619   -6.6182   33.5562 H   0  0  0  0  0  0  0  0  0  0  0  0
  1  2  1  0
  2  3  1  0
  2  4  1  0
  4  5  1  0
  5  6  1  0
  5  7  1  0
  7  8  1  0
  8  9  1  0
  9 10  2  0
 10 11  1  0
 11 12  2  0
 12 13  1  0
 13 14  1  0
 14 15  1  0
 15 16  1  0
 15 17  2  0
 15 18  2  0
 13 19  2  0
  8 20  1  0
 20 21  1  0
 21 22  1  0
 22 23  1  0
 23 24  1  0
 23 25  1  0
 25 26  1  0
 26 27  1  0
 26 28  1  0
 27  2  1  0
 28  7  1  0
 19  9  1  0
 28 22  1  0
  1 29  1  0
  1 30  1  0
  1 31  1  0
  3 32  1  0
  3 33  1  0
  3 34  1  0
  5 35  1  0
  6 36  1  0
  7 37  1  0
  8 38  1  0
 10 39  1  0
 11 40  1  0
 12 41  1  0
 14 42  1  0
 16 43  1  0
 16 44  1  0
 16 45  1  0
 19 46  1  0
 20 47  1  0
 20 48  1  0
 21 49  1  0
 21 50  1  0
 22 51  1  0
 23 52  1  0
 25 53  1  0
 25 54  1  0
 26 55  1  0
 28 56  1  0
M  END
>  <Energy>  (746) 
0.16043244848279592

>  <compound_id>  (746) 
3705

>  <target_id>  (746) 
1

>  <reference_id>  (746) 
162

>  <inspiration_ids>  (746) 
[128, 162]

>  <energy_score>  (746) 
-77.3087115366778

>  <distance_score>  (746) 
1.4522611364655402

>  <path>  (746) 
/opt/xchem-fragalysis-2/maxwin/BulkDock/SCRATCH/505734/C3705-P162/C3705-P162.minimised.mol

>  <scratch_subdir>  (746) 
/opt/xchem-fragalysis-2/maxwin/BulkDock/SCRATCH/505734/C3705-P162

>  <fragmenstein_runtime>  (746) 
4.521428823471069

>  <fragmenstein_outcome>  (746) 
too moved

>  <fragmenstein_mode>  (746) 
expansion

>  <fragmenstein_error>  (746) 


$$$$
C3707-P128
     RDKit          3D

 59 62  0  0  0  0  0  0  0  0999 V2000
    3.6047   -5.6533   36.8435 C   0  0  0  0  0  0  0  0  0  0  0  0
    4.0517   -6.2391   35.5256 N   0  0  0  0  0  0  0  0  0  0  0  0
    4.9859   -6.9767   36.4375 C   0  0  0  0  0  0  0  0  0  0  0  0
    5.8766   -7.8050   35.5126 C   0  0  0  0  0  0  0  0  0  0  0  0
    6.8601   -7.1668   34.7440 C   0  0  0  0  0  0  0  0  0  0  0  0
    7.6331   -7.8994   33.8467 C   0  0  0  0  0  0  0  0  0  0  0  0
    7.4304   -9.2718   33.7048 C   0  0  0  0  0  0  0  0  0  0  0  0
    6.4489   -9.9137   34.4573 C   0  0  0  0  0  0  0  0  0  0  0  0
    5.6728   -9.1841   35.3577 C   0  0  0  0  0  0  0  0  0  0  0  0
    2.9548   -6.6483   34.7793 C   0  0  0  0  0  0  0  0  0  0  0  0
    2.2095   -8.0209   34.7016 O   0  0  0  0  0  0  0  0  0  0  0  0
    2.3453   -6.0219   34.1540 N   0  0  0  0  0  0  0  0  0  0  0  0
    1.1251   -6.0404   33.1974 C   0  0  0  0  0  0  0  0  0  0  0  0
    0.0634   -5.0878   33.7709 C   0  0  0  0  0  0  0  0  0  0  0  0
   -0.1697   -3.8409   33.2802 C   0  0  0  0  0  0  0  0  0  0  0  0
    0.4970   -3.4337   32.0443 C   0  0  0  0  0  0  0  0  0  0  0  0
   -0.0231   -3.7375   30.7843 C   0  0  0  0  0  0  0  0  0  0  0  0
    0.7170   -3.4405   29.6405 C   0  0  0  0  0  0  0  0  0  0  0  0
    1.9872   -2.8714   29.7611 C   0  0  0  0  0  0  0  0  0  0  0  0
    2.5040   -2.5902   31.0241 C   0  0  0  0  0  0  0  0  0  0  0  0
    3.8010   -1.9964   31.1388 N   0  0  0  0  0  0  0  0  0  0  0  0
    4.8597   -2.8200   32.1971 S   0  0  0  0  0  0  0  0  0  0  0  0
    6.4289   -2.3650   31.4964 C   0  0  0  0  0  0  0  0  0  0  0  0
    4.6811   -4.2441   32.0235 O   0  0  0  0  0  0  0  0  0  0  0  0
    4.7185   -2.1852   33.4896 O   0  0  0  0  0  0  0  0  0  0  0  0
    1.7385   -2.8139   32.1603 C   0  0  0  0  0  0  0  0  0  0  0  0
   -0.8906   -2.8724   34.1077 C   0  0  0  0  0  0  0  0  0  0  0  0
   -1.2669   -3.1581   35.3661 C   0  0  0  0  0  0  0  0  0  0  0  0
   -1.0857   -4.4745   35.8573 C   0  0  0  0  0  0  0  0  0  0  0  0
   -1.3744   -5.0341   37.0077 N   0  0  0  0  0  0  0  0  0  0  0  0
   -1.1184   -6.3769   36.8919 N   0  0  0  0  0  0  0  0  0  0  0  0
   -0.6805   -6.6125   35.6816 C   0  0  0  0  0  0  0  0  0  0  0  0
   -0.4738   -7.8078   35.0965 N   0  0  0  0  0  0  0  0  0  0  0  0
   -0.5180   -5.4156   35.0095 N   0  0  0  0  0  0  0  0  0  0  0  0
    3.0718   -6.3579   37.5020 H   0  0  0  0  0  0  0  0  0  0  0  0
    2.8208   -4.9238   36.5836 H   0  0  0  0  0  0  0  0  0  0  0  0
    4.3510   -5.0261   37.3543 H   0  0  0  0  0  0  0  0  0  0  0  0
    5.6986   -6.3492   36.9978 H   0  0  0  0  0  0  0  0  0  0  0  0
    4.4781   -7.7078   37.0877 H   0  0  0  0  0  0  0  0  0  0  0  0
    7.0065   -6.0923   34.8256 H   0  0  0  0  0  0  0  0  0  0  0  0
    8.3890   -7.3993   33.2475 H   0  0  0  0  0  0  0  0  0  0  0  0
    8.0269   -9.8401   32.9959 H   0  0  0  0  0  0  0  0  0  0  0  0
    6.2783  -10.9795   34.3291 H   0  0  0  0  0  0  0  0  0  0  0  0
    4.8933   -9.6919   35.9195 H   0  0  0  0  0  0  0  0  0  0  0  0
    2.0601   -5.1648   33.7543 H   0  0  0  0  0  0  0  0  0  0  0  0
    1.4820   -5.7863   32.1871 H   0  0  0  0  0  0  0  0  0  0  0  0
    0.7407   -7.0576   33.0971 H   0  0  0  0  0  0  0  0  0  0  0  0
   -0.9977   -4.2035   30.6859 H   0  0  0  0  0  0  0  0  0  0  0  0
    0.3021   -3.6516   28.6572 H   0  0  0  0  0  0  0  0  0  0  0  0
    2.5661   -2.6507   28.8687 H   0  0  0  0  0  0  0  0  0  0  0  0
    3.7241   -1.0261   31.4577 H   0  0  0  0  0  0  0  0  0  0  0  0
    6.4815   -2.7397   30.4726 H   0  0  0  0  0  0  0  0  0  0  0  0
    7.2134   -2.8248   32.1013 H   0  0  0  0  0  0  0  0  0  0  0  0
    6.5278   -1.2783   31.5237 H   0  0  0  0  0  0  0  0  0  0  0  0
    2.1233   -2.5593   33.1458 H   0  0  0  0  0  0  0  0  0  0  0  0
   -1.0700   -1.8813   33.6999 H   0  0  0  0  0  0  0  0  0  0  0  0
   -1.7781   -2.4349   35.9903 H   0  0  0  0  0  0  0  0  0  0  0  0
    0.5270   -8.0325   35.0167 H   0  0  0  0  0  0  0  0  0  0  0  0
   -0.8568   -8.6152   35.6108 H   0  0  0  0  0  0  0  0  0  0  0  0
  1  2  1  0
  2  3  1  0
  3  4  1  0
  4  5  2  0
  5  6  1  0
  6  7  2  0
  7  8  1  0
  8  9  2  0
  2 10  1  0
 10 11  2  0
 10 12  1  0
 12 13  1  0
 13 14  1  0
 14 15  2  0
 15 16  1  0
 16 17  2  0
 17 18  1  0
 18 19  2  0
 19 20  1  0
 20 21  1  0
 21 22  1  0
 22 23  1  0
 22 24  2  0
 22 25  2  0
 20 26  2  0
 15 27  1  0
 27 28  2  0
 28 29  1  0
 29 30  2  0
 30 31  1  0
 31 32  2  0
 32 33  1  0
 32 34  1  0
  9  4  1  0
 34 14  1  0
 26 16  1  0
 34 29  1  0
  1 35  1  0
  1 36  1  0
  1 37  1  0
  3 38  1  0
  3 39  1  0
  5 40  1  0
  6 41  1  0
  7 42  1  0
  8 43  1  0
  9 44  1  0
 12 45  1  0
 13 46  1  0
 13 47  1  0
 17 48  1  0
 18 49  1  0
 19 50  1  0
 21 51  1  0
 23 52  1  0
 23 53  1  0
 23 54  1  0
 26 55  1  0
 27 56  1  0
 28 57  1  0
 33 58  1  0
 33 59  1  0
M  END
>  <Energy>  (747) 
192.66996996032026

>  <compound_id>  (747) 
3707

>  <target_id>  (747) 
1

>  <reference_id>  (747) 
128

>  <inspiration_ids>  (747) 
[128, 165]

>  <energy_score>  (747) 
212.37743409225277

>  <distance_score>  (747) 
3.70153326661323

>  <path>  (747) 
/opt/xchem-fragalysis-2/maxwin/BulkDock/SCRATCH/505734/C3707-P128/C3707-P128.minimised.mol

>  <scratch_subdir>  (747) 
/opt/xchem-fragalysis-2/maxwin/BulkDock/SCRATCH/505734/C3707-P128

>  <fragmenstein_runtime>  (747) 
19.162853240966797

>  <fragmenstein_outcome>  (747) 
too moved

>  <fragmenstein_mode>  (747) 
expansion

>  <fragmenstein_error>  (747) 


$$$$
C3707-P165
     RDKit          3D

 59 62  0  0  0  0  0  0  0  0999 V2000
    6.4297   -8.2563   37.1133 C   0  0  0  0  0  0  0  0  0  0  0  0
    5.8647   -7.4551   35.9713 N   0  0  0  0  0  0  0  0  0  0  0  0
    7.2247   -7.7480   35.4005 C   0  0  0  0  0  0  0  0  0  0  0  0
    7.3700   -6.8770   34.1438 C   0  0  0  0  0  0  0  0  0  0  0  0
    6.9773   -5.5278   34.1608 C   0  0  0  0  0  0  0  0  0  0  0  0
    7.1461   -4.7257   33.0344 C   0  0  0  0  0  0  0  0  0  0  0  0
    7.7232   -5.2553   31.8820 C   0  0  0  0  0  0  0  0  0  0  0  0
    8.1324   -6.5877   31.8565 C   0  0  0  0  0  0  0  0  0  0  0  0
    7.9607   -7.3955   32.9826 C   0  0  0  0  0  0  0  0  0  0  0  0
    4.5947   -7.9082   35.6427 C   0  0  0  0  0  0  0  0  0  0  0  0
    4.1134   -8.9891   34.6229 O   0  0  0  0  0  0  0  0  0  0  0  0
    3.6673   -7.5027   35.9988 N   0  0  0  0  0  0  0  0  0  0  0  0
    2.1620   -7.5541   35.7914 C   0  0  0  0  0  0  0  0  0  0  0  0
    1.4883   -6.2063   35.6821 C   0  0  0  0  0  0  0  0  0  0  0  0
    1.9883   -5.0660   35.1489 C   0  0  0  0  0  0  0  0  0  0  0  0
    2.4736   -5.1460   33.7434 C   0  0  0  0  0  0  0  0  0  0  0  0
    1.6769   -5.7545   32.7479 C   0  0  0  0  0  0  0  0  0  0  0  0
    1.8567   -5.4471   31.3984 C   0  0  0  0  0  0  0  0  0  0  0  0
    2.8073   -4.4996   31.0336 C   0  0  0  0  0  0  0  0  0  0  0  0
    3.5941   -3.9015   32.0192 C   0  0  0  0  0  0  0  0  0  0  0  0
    4.4154   -2.7951   31.6790 N   0  0  0  0  0  0  0  0  0  0  0  0
    4.0033   -1.2788   32.3058 S   0  0  0  0  0  0  0  0  0  0  0  0
    2.4399   -0.9496   31.5140 C   0  0  0  0  0  0  0  0  0  0  0  0
    3.7904   -1.3613   33.7341 O   0  0  0  0  0  0  0  0  0  0  0  0
    4.9750   -0.3616   31.7539 O   0  0  0  0  0  0  0  0  0  0  0  0
    3.4738   -4.2674   33.3563 C   0  0  0  0  0  0  0  0  0  0  0  0
    1.3503   -3.7945   35.5542 C   0  0  0  0  0  0  0  0  0  0  0  0
    0.0957   -3.7651   36.0307 C   0  0  0  0  0  0  0  0  0  0  0  0
   -0.6001   -4.9896   36.1074 C   0  0  0  0  0  0  0  0  0  0  0  0
   -1.8647   -5.2825   36.2182 N   0  0  0  0  0  0  0  0  0  0  0  0
   -2.0119   -6.6145   35.9354 N   0  0  0  0  0  0  0  0  0  0  0  0
   -0.8309   -7.1555   35.9300 C   0  0  0  0  0  0  0  0  0  0  0  0
   -0.5318   -8.4459   35.7313 N   0  0  0  0  0  0  0  0  0  0  0  0
    0.1219   -6.1599   35.9774 N   0  0  0  0  0  0  0  0  0  0  0  0
    6.6265   -9.3174   36.8900 H   0  0  0  0  0  0  0  0  0  0  0  0
    7.2305   -7.7500   37.6735 H   0  0  0  0  0  0  0  0  0  0  0  0
    5.6186   -8.3113   37.8571 H   0  0  0  0  0  0  0  0  0  0  0  0
    8.0961   -7.4363   36.0000 H   0  0  0  0  0  0  0  0  0  0  0  0
    7.2904   -8.7916   35.0532 H   0  0  0  0  0  0  0  0  0  0  0  0
    6.5364   -5.0935   35.0556 H   0  0  0  0  0  0  0  0  0  0  0  0
    6.8391   -3.6831   33.0611 H   0  0  0  0  0  0  0  0  0  0  0  0
    7.8632   -4.6250   31.0083 H   0  0  0  0  0  0  0  0  0  0  0  0
    8.5890   -6.9986   30.9600 H   0  0  0  0  0  0  0  0  0  0  0  0
    8.2860   -8.4325   32.9438 H   0  0  0  0  0  0  0  0  0  0  0  0
    3.1032   -6.9449   36.5872 H   0  0  0  0  0  0  0  0  0  0  0  0
    1.7760   -8.1279   36.6503 H   0  0  0  0  0  0  0  0  0  0  0  0
    1.9625   -8.1310   34.8858 H   0  0  0  0  0  0  0  0  0  0  0  0
    0.8477   -6.4065   33.0182 H   0  0  0  0  0  0  0  0  0  0  0  0
    1.2108   -5.8965   30.6487 H   0  0  0  0  0  0  0  0  0  0  0  0
    2.8973   -4.2060   29.9923 H   0  0  0  0  0  0  0  0  0  0  0  0
    4.7638   -2.7394   30.7231 H   0  0  0  0  0  0  0  0  0  0  0  0
    2.5650   -1.0325   30.4329 H   0  0  0  0  0  0  0  0  0  0  0  0
    2.1436    0.0693   31.7738 H   0  0  0  0  0  0  0  0  0  0  0  0
    1.6917   -1.6530   31.8826 H   0  0  0  0  0  0  0  0  0  0  0  0
    4.0759   -3.7702   34.1136 H   0  0  0  0  0  0  0  0  0  0  0  0
    1.9190   -2.8754   35.4310 H   0  0  0  0  0  0  0  0  0  0  0  0
   -0.4086   -2.8424   36.2919 H   0  0  0  0  0  0  0  0  0  0  0  0
   -1.1883   -8.9349   35.1010 H   0  0  0  0  0  0  0  0  0  0  0  0
   -0.7254   -9.0494   36.5481 H   0  0  0  0  0  0  0  0  0  0  0  0
  1  2  1  0
  2  3  1  0
  3  4  1  0
  4  5  2  0
  5  6  1  0
  6  7  2  0
  7  8  1  0
  8  9  2  0
  2 10  1  0
 10 11  2  0
 10 12  1  0
 12 13  1  0
 13 14  1  0
 14 15  2  0
 15 16  1  0
 16 17  2  0
 17 18  1  0
 18 19  2  0
 19 20  1  0
 20 21  1  0
 21 22  1  0
 22 23  1  0
 22 24  2  0
 22 25  2  0
 20 26  2  0
 15 27  1  0
 27 28  2  0
 28 29  1  0
 29 30  2  0
 30 31  1  0
 31 32  2  0
 32 33  1  0
 32 34  1  0
  9  4  1  0
 34 14  1  0
 26 16  1  0
 34 29  1  0
  1 35  1  0
  1 36  1  0
  1 37  1  0
  3 38  1  0
  3 39  1  0
  5 40  1  0
  6 41  1  0
  7 42  1  0
  8 43  1  0
  9 44  1  0
 12 45  1  0
 13 46  1  0
 13 47  1  0
 17 48  1  0
 18 49  1  0
 19 50  1  0
 21 51  1  0
 23 52  1  0
 23 53  1  0
 23 54  1  0
 26 55  1  0
 27 56  1  0
 28 57  1  0
 33 58  1  0
 33 59  1  0
M  END
>  <Energy>  (748) 
232.54599037701158

>  <compound_id>  (748) 
3707

>  <target_id>  (748) 
1

>  <reference_id>  (748) 
165

>  <inspiration_ids>  (748) 
[128, 165]

>  <energy_score>  (748) 
252.25345450894042

>  <distance_score>  (748) 
4.351877815140542

>  <path>  (748) 
/opt/xchem-fragalysis-2/maxwin/BulkDock/SCRATCH/505734/C3707-P165/C3707-P165.minimised.mol

>  <scratch_subdir>  (748) 
/opt/xchem-fragalysis-2/maxwin/BulkDock/SCRATCH/505734/C3707-P165

>  <fragmenstein_runtime>  (748) 
17.702937841415405

>  <fragmenstein_outcome>  (748) 
too moved

>  <fragmenstein_mode>  (748) 
expansion

>  <fragmenstein_error>  (748) 


$$$$
C3707-P128
     RDKit          3D

 59 62  0  0  0  0  0  0  0  0999 V2000
    5.4020   -4.4109   36.5798 C   0  0  0  0  0  0  0  0  0  0  0  0
    3.9747   -4.7598   36.3486 N   0  0  0  0  0  0  0  0  0  0  0  0
    4.1851   -5.5475   37.6648 C   0  0  0  0  0  0  0  0  0  0  0  0
    2.8769   -6.0201   38.3033 C   0  0  0  0  0  0  0  0  0  0  0  0
    2.3656   -7.2978   38.0278 C   0  0  0  0  0  0  0  0  0  0  0  0
    1.1771   -7.7247   38.6166 C   0  0  0  0  0  0  0  0  0  0  0  0
    0.4974   -6.8924   39.4987 C   0  0  0  0  0  0  0  0  0  0  0  0
    0.9899   -5.6204   39.7758 C   0  0  0  0  0  0  0  0  0  0  0  0
    2.1695   -5.1806   39.1752 C   0  0  0  0  0  0  0  0  0  0  0  0
    3.3585   -5.6224   35.3373 C   0  0  0  0  0  0  0  0  0  0  0  0
    3.8536   -6.3110   34.5260 O   0  0  0  0  0  0  0  0  0  0  0  0
    1.9642   -5.3002   35.5729 N   0  0  0  0  0  0  0  0  0  0  0  0
    0.7700   -5.7950   34.9541 C   0  0  0  0  0  0  0  0  0  0  0  0
    0.5641   -5.4574   33.4917 C   0  0  0  0  0  0  0  0  0  0  0  0
    1.0687   -4.3976   32.7959 C   0  0  0  0  0  0  0  0  0  0  0  0
    1.8552   -3.3116   33.4135 C   0  0  0  0  0  0  0  0  0  0  0  0
    1.2586   -2.3939   34.2860 C   0  0  0  0  0  0  0  0  0  0  0  0
    2.0006   -1.3284   34.7996 C   0  0  0  0  0  0  0  0  0  0  0  0
    3.3358   -1.1643   34.4317 C   0  0  0  0  0  0  0  0  0  0  0  0
    3.9299   -2.0755   33.5625 C   0  0  0  0  0  0  0  0  0  0  0  0
    5.2915   -1.8834   33.1812 N   0  0  0  0  0  0  0  0  0  0  0  0
    5.5724   -1.1893   31.6603 S   0  0  0  0  0  0  0  0  0  0  0  0
    5.4961    0.5485   32.0375 C   0  0  0  0  0  0  0  0  0  0  0  0
    4.5019   -1.5350   30.7523 O   0  0  0  0  0  0  0  0  0  0  0  0
    6.9483   -1.5120   31.3434 O   0  0  0  0  0  0  0  0  0  0  0  0
    3.1977   -3.1441   33.0515 C   0  0  0  0  0  0  0  0  0  0  0  0
    0.8029   -4.3106   31.3508 C   0  0  0  0  0  0  0  0  0  0  0  0
    0.1222   -5.2476   30.6767 C   0  0  0  0  0  0  0  0  0  0  0  0
   -0.4048   -6.3521   31.3787 C   0  0  0  0  0  0  0  0  0  0  0  0
   -1.0744   -7.4069   30.9693 N   0  0  0  0  0  0  0  0  0  0  0  0
   -1.4080   -8.1379   32.0786 N   0  0  0  0  0  0  0  0  0  0  0  0
   -0.9718   -7.5003   33.1426 C   0  0  0  0  0  0  0  0  0  0  0  0
   -1.1568   -7.8464   34.4341 N   0  0  0  0  0  0  0  0  0  0  0  0
   -0.2282   -6.3890   32.7573 N   0  0  0  0  0  0  0  0  0  0  0  0
    5.5584   -3.6783   37.3839 H   0  0  0  0  0  0  0  0  0  0  0  0
    5.6745   -3.8568   35.6701 H   0  0  0  0  0  0  0  0  0  0  0  0
    6.1117   -5.2516   36.5627 H   0  0  0  0  0  0  0  0  0  0  0  0
    4.6602   -4.9806   38.4847 H   0  0  0  0  0  0  0  0  0  0  0  0
    4.7645   -6.4655   37.4653 H   0  0  0  0  0  0  0  0  0  0  0  0
    2.8814   -7.9661   37.3419 H   0  0  0  0  0  0  0  0  0  0  0  0
    0.7764   -8.7077   38.3857 H   0  0  0  0  0  0  0  0  0  0  0  0
   -0.4212   -7.2346   39.9669 H   0  0  0  0  0  0  0  0  0  0  0  0
    0.4502   -4.9693   40.4591 H   0  0  0  0  0  0  0  0  0  0  0  0
    2.5379   -4.1819   39.3987 H   0  0  0  0  0  0  0  0  0  0  0  0
    1.8916   -4.7396   36.4097 H   0  0  0  0  0  0  0  0  0  0  0  0
   -0.0832   -5.4536   35.5489 H   0  0  0  0  0  0  0  0  0  0  0  0
    0.8877   -6.8750   35.0735 H   0  0  0  0  0  0  0  0  0  0  0  0
    0.2105   -2.4970   34.5589 H   0  0  0  0  0  0  0  0  0  0  0  0
    1.5314   -0.6193   35.4769 H   0  0  0  0  0  0  0  0  0  0  0  0
    3.9065   -0.3325   34.8336 H   0  0  0  0  0  0  0  0  0  0  0  0
    5.8637   -2.7277   33.2545 H   0  0  0  0  0  0  0  0  0  0  0  0
    6.2150    0.7724   32.8277 H   0  0  0  0  0  0  0  0  0  0  0  0
    5.7590    1.0990   31.1315 H   0  0  0  0  0  0  0  0  0  0  0  0
    4.4806    0.8056   32.3422 H   0  0  0  0  0  0  0  0  0  0  0  0
    3.6640   -3.8456   32.3640 H   0  0  0  0  0  0  0  0  0  0  0  0
    1.1894   -3.4426   30.8185 H   0  0  0  0  0  0  0  0  0  0  0  0
   -0.0591   -5.1546   29.6125 H   0  0  0  0  0  0  0  0  0  0  0  0
   -1.6972   -7.2172   35.0156 H   0  0  0  0  0  0  0  0  0  0  0  0
   -1.4975   -8.8112   34.5797 H   0  0  0  0  0  0  0  0  0  0  0  0
  1  2  1  0
  2  3  1  0
  3  4  1  0
  4  5  2  0
  5  6  1  0
  6  7  2  0
  7  8  1  0
  8  9  2  0
  2 10  1  0
 10 11  2  0
 10 12  1  0
 12 13  1  0
 13 14  1  0
 14 15  2  0
 15 16  1  0
 16 17  2  0
 17 18  1  0
 18 19  2  0
 19 20  1  0
 20 21  1  0
 21 22  1  0
 22 23  1  0
 22 24  2  0
 22 25  2  0
 20 26  2  0
 15 27  1  0
 27 28  2  0
 28 29  1  0
 29 30  2  0
 30 31  1  0
 31 32  2  0
 32 33  1  0
 32 34  1  0
  9  4  1  0
 34 14  1  0
 26 16  1  0
 34 29  1  0
  1 35  1  0
  1 36  1  0
  1 37  1  0
  3 38  1  0
  3 39  1  0
  5 40  1  0
  6 41  1  0
  7 42  1  0
  8 43  1  0
  9 44  1  0
 12 45  1  0
 13 46  1  0
 13 47  1  0
 17 48  1  0
 18 49  1  0
 19 50  1  0
 21 51  1  0
 23 52  1  0
 23 53  1  0
 23 54  1  0
 26 55  1  0
 27 56  1  0
 28 57  1  0
 33 58  1  0
 33 59  1  0
M  END
>  <Energy>  (749) 
0.50381390268402582

>  <compound_id>  (749) 
3707

>  <target_id>  (749) 
1

>  <reference_id>  (749) 
128

>  <inspiration_ids>  (749) 
[128, 166]

>  <energy_score>  (749) 
16.26508792334699

>  <distance_score>  (749) 
2.211848782729956

>  <path>  (749) 
/opt/xchem-fragalysis-2/maxwin/BulkDock/SCRATCH/505734/C3707-P128/C3707-P128.minimised.mol

>  <scratch_subdir>  (749) 
/opt/xchem-fragalysis-2/maxwin/BulkDock/SCRATCH/505734/C3707-P128

>  <fragmenstein_runtime>  (749) 
9.561944723129272

>  <fragmenstein_outcome>  (749) 
too moved

>  <fragmenstein_mode>  (749) 
expansion

>  <fragmenstein_error>  (749) 


$$$$
C3707-P166
     RDKit          3D

 59 62  0  0  0  0  0  0  0  0999 V2000
    4.3532   -6.4284   36.5851 C   0  0  0  0  0  0  0  0  0  0  0  0
    3.0372   -5.8282   36.2440 N   0  0  0  0  0  0  0  0  0  0  0  0
    2.9315   -5.7275   37.7800 C   0  0  0  0  0  0  0  0  0  0  0  0
    2.5909   -6.9135   38.6696 C   0  0  0  0  0  0  0  0  0  0  0  0
    1.3095   -7.4780   38.6750 C   0  0  0  0  0  0  0  0  0  0  0  0
    1.0045   -8.5210   39.5471 C   0  0  0  0  0  0  0  0  0  0  0  0
    1.9690   -9.0144   40.4218 C   0  0  0  0  0  0  0  0  0  0  0  0
    3.2415   -8.4567   40.4378 C   0  0  0  0  0  0  0  0  0  0  0  0
    3.5480   -7.4065   39.5734 C   0  0  0  0  0  0  0  0  0  0  0  0
    1.8302   -6.4392   35.6961 C   0  0  0  0  0  0  0  0  0  0  0  0
    1.5819   -7.5665   35.4768 O   0  0  0  0  0  0  0  0  0  0  0  0
    1.0413   -5.2473   35.4867 N   0  0  0  0  0  0  0  0  0  0  0  0
   -0.2395   -5.0653   34.8642 C   0  0  0  0  0  0  0  0  0  0  0  0
   -0.0884   -5.3178   33.3892 C   0  0  0  0  0  0  0  0  0  0  0  0
    0.5218   -4.4276   32.5527 C   0  0  0  0  0  0  0  0  0  0  0  0
    1.1795   -3.1962   33.0366 C   0  0  0  0  0  0  0  0  0  0  0  0
    2.5232   -3.2349   33.4368 C   0  0  0  0  0  0  0  0  0  0  0  0
    3.1693   -2.0704   33.8497 C   0  0  0  0  0  0  0  0  0  0  0  0
    2.4840   -0.8560   33.8387 C   0  0  0  0  0  0  0  0  0  0  0  0
    1.1568   -0.8080   33.4099 C   0  0  0  0  0  0  0  0  0  0  0  0
    0.4454    0.4295   33.4163 N   0  0  0  0  0  0  0  0  0  0  0  0
   -0.1255    0.9880   34.9094 S   0  0  0  0  0  0  0  0  0  0  0  0
    1.0012    2.3287   35.2209 C   0  0  0  0  0  0  0  0  0  0  0  0
    0.0550   -0.0208   35.9292 O   0  0  0  0  0  0  0  0  0  0  0  0
   -1.4233    1.5700   34.6378 O   0  0  0  0  0  0  0  0  0  0  0  0
    0.4975   -1.9751   33.0216 C   0  0  0  0  0  0  0  0  0  0  0  0
    0.5653   -4.7177   31.1231 C   0  0  0  0  0  0  0  0  0  0  0  0
    0.0184   -5.8237   30.6069 C   0  0  0  0  0  0  0  0  0  0  0  0
   -0.6174   -6.7569   31.4520 C   0  0  0  0  0  0  0  0  0  0  0  0
   -1.2689   -7.8606   31.1726 N   0  0  0  0  0  0  0  0  0  0  0  0
   -1.6580   -8.4120   32.3609 N   0  0  0  0  0  0  0  0  0  0  0  0
   -1.2177   -7.6577   33.3465 C   0  0  0  0  0  0  0  0  0  0  0  0
   -1.2687   -7.9736   34.6651 N   0  0  0  0  0  0  0  0  0  0  0  0
   -0.6218   -6.5085   32.8240 N   0  0  0  0  0  0  0  0  0  0  0  0
    4.3035   -7.4546   36.9690 H   0  0  0  0  0  0  0  0  0  0  0  0
    5.0837   -5.7682   37.0734 H   0  0  0  0  0  0  0  0  0  0  0  0
    4.8015   -6.5898   35.5925 H   0  0  0  0  0  0  0  0  0  0  0  0
    3.7021   -5.0750   38.2292 H   0  0  0  0  0  0  0  0  0  0  0  0
    2.0535   -5.0711   37.9092 H   0  0  0  0  0  0  0  0  0  0  0  0
    0.5294   -7.1152   38.0102 H   0  0  0  0  0  0  0  0  0  0  0  0
    0.0113   -8.9618   39.5304 H   0  0  0  0  0  0  0  0  0  0  0  0
    1.7201   -9.8324   41.0912 H   0  0  0  0  0  0  0  0  0  0  0  0
    3.9914   -8.8342   41.1273 H   0  0  0  0  0  0  0  0  0  0  0  0
    4.5436   -6.9705   39.6160 H   0  0  0  0  0  0  0  0  0  0  0  0
    1.6018   -4.4359   35.7128 H   0  0  0  0  0  0  0  0  0  0  0  0
   -0.5593   -4.0354   35.0579 H   0  0  0  0  0  0  0  0  0  0  0  0
   -0.9716   -5.7012   35.3599 H   0  0  0  0  0  0  0  0  0  0  0  0
    3.0698   -4.1764   33.4336 H   0  0  0  0  0  0  0  0  0  0  0  0
    4.2072   -2.1074   34.1701 H   0  0  0  0  0  0  0  0  0  0  0  0
    2.9980    0.0483   34.1489 H   0  0  0  0  0  0  0  0  0  0  0  0
   -0.3090    0.4985   32.7279 H   0  0  0  0  0  0  0  0  0  0  0  0
    0.9592    3.0298   34.3852 H   0  0  0  0  0  0  0  0  0  0  0  0
    0.6817    2.8283   36.1383 H   0  0  0  0  0  0  0  0  0  0  0  0
    2.0082    1.9307   35.3509 H   0  0  0  0  0  0  0  0  0  0  0  0
   -0.5423   -1.9386   32.7062 H   0  0  0  0  0  0  0  0  0  0  0  0
    1.0403   -3.9915   30.4673 H   0  0  0  0  0  0  0  0  0  0  0  0
    0.0350   -6.0037   29.5461 H   0  0  0  0  0  0  0  0  0  0  0  0
   -0.3809   -7.8624   35.1681 H   0  0  0  0  0  0  0  0  0  0  0  0
   -1.5198   -8.9674   34.8140 H   0  0  0  0  0  0  0  0  0  0  0  0
  1  2  1  0
  2  3  1  0
  3  4  1  0
  4  5  2  0
  5  6  1  0
  6  7  2  0
  7  8  1  0
  8  9  2  0
  2 10  1  0
 10 11  2  0
 10 12  1  0
 12 13  1  0
 13 14  1  0
 14 15  2  0
 15 16  1  0
 16 17  2  0
 17 18  1  0
 18 19  2  0
 19 20  1  0
 20 21  1  0
 21 22  1  0
 22 23  1  0
 22 24  2  0
 22 25  2  0
 20 26  2  0
 15 27  1  0
 27 28  2  0
 28 29  1  0
 29 30  2  0
 30 31  1  0
 31 32  2  0
 32 33  1  0
 32 34  1  0
  9  4  1  0
 34 14  1  0
 26 16  1  0
 34 29  1  0
  1 35  1  0
  1 36  1  0
  1 37  1  0
  3 38  1  0
  3 39  1  0
  5 40  1  0
  6 41  1  0
  7 42  1  0
  8 43  1  0
  9 44  1  0
 12 45  1  0
 13 46  1  0
 13 47  1  0
 17 48  1  0
 18 49  1  0
 19 50  1  0
 21 51  1  0
 23 52  1  0
 23 53  1  0
 23 54  1  0
 26 55  1  0
 27 56  1  0
 28 57  1  0
 33 58  1  0
 33 59  1  0
M  END
>  <Energy>  (750) 
-4.4042670586396166

>  <compound_id>  (750) 
3707

>  <target_id>  (750) 
1

>  <reference_id>  (750) 
166

>  <inspiration_ids>  (750) 
[128, 166]

>  <energy_score>  (750) 
11.357006962024016

>  <distance_score>  (750) 
1.5257978134668269

>  <path>  (750) 
/opt/xchem-fragalysis-2/maxwin/BulkDock/SCRATCH/505734/C3707-P166/C3707-P166.minimised.mol

>  <scratch_subdir>  (750) 
/opt/xchem-fragalysis-2/maxwin/BulkDock/SCRATCH/505734/C3707-P166

>  <fragmenstein_runtime>  (750) 
9.682623386383057

>  <fragmenstein_outcome>  (750) 
too moved

>  <fragmenstein_mode>  (750) 
expansion

>  <fragmenstein_error>  (750) 


$$$$
C3710-P128
     RDKit          3D

 54 57  0  0  0  0  0  0  0  0999 V2000
    4.4713   -4.8894   35.4426 C   0  0  0  0  0  0  0  0  0  0  0  0
    4.3804   -5.5803   34.1707 N   0  0  0  0  0  0  0  0  0  0  0  0
    5.6332   -5.4671   33.2901 C   0  0  0  0  0  0  0  0  0  0  0  0
    6.6656   -6.5686   32.8922 C   0  0  0  0  0  0  0  0  0  0  0  0
    6.9317   -7.7361   33.6174 C   0  0  0  0  0  0  0  0  0  0  0  0
    7.8066   -8.7317   33.1167 C   0  0  0  0  0  0  0  0  0  0  0  0
    8.4695   -8.5712   31.9003 C   0  0  0  0  0  0  0  0  0  0  0  0
    8.2816   -7.3896   31.1939 C   0  0  0  0  0  0  0  0  0  0  0  0
    7.3992   -6.4108   31.6785 C   0  0  0  0  0  0  0  0  0  0  0  0
    3.1588   -6.2516   33.9318 C   0  0  0  0  0  0  0  0  0  0  0  0
    3.0287   -7.4330   34.2833 O   0  0  0  0  0  0  0  0  0  0  0  0
    1.9708   -5.6329   33.1296 C   0  0  0  0  0  0  0  0  0  0  0  0
    2.0379   -4.4297   32.4922 C   0  0  0  0  0  0  0  0  0  0  0  0
    2.6377   -3.2479   33.1371 C   0  0  0  0  0  0  0  0  0  0  0  0
    2.2387   -2.9326   34.4479 C   0  0  0  0  0  0  0  0  0  0  0  0
    2.6691   -1.7619   35.0634 C   0  0  0  0  0  0  0  0  0  0  0  0
    3.4430   -0.8573   34.3496 C   0  0  0  0  0  0  0  0  0  0  0  0
    3.7874   -1.1279   33.0279 C   0  0  0  0  0  0  0  0  0  0  0  0
    4.4402   -0.1061   32.2799 N   0  0  0  0  0  0  0  0  0  0  0  0
    3.4276    0.9580   31.4241 S   0  0  0  0  0  0  0  0  0  0  0  0
    3.0352    2.1832   32.6635 C   0  0  0  0  0  0  0  0  0  0  0  0
    4.2898    1.5710   30.4361 O   0  0  0  0  0  0  0  0  0  0  0  0
    2.2252    0.2557   31.0342 O   0  0  0  0  0  0  0  0  0  0  0  0
    3.4001   -2.3224   32.4196 C   0  0  0  0  0  0  0  0  0  0  0  0
    1.2300   -4.2224   31.2729 C   0  0  0  0  0  0  0  0  0  0  0  0
    0.3545   -5.1251   30.8110 C   0  0  0  0  0  0  0  0  0  0  0  0
    0.0802   -6.2558   31.6012 C   0  0  0  0  0  0  0  0  0  0  0  0
   -0.8202   -7.2011   31.4658 N   0  0  0  0  0  0  0  0  0  0  0  0
   -0.8740   -7.8653   32.6570 N   0  0  0  0  0  0  0  0  0  0  0  0
    0.0259   -7.3462   33.4690 C   0  0  0  0  0  0  0  0  0  0  0  0
    0.1082   -7.5736   34.7984 N   0  0  0  0  0  0  0  0  0  0  0  0
    0.8230   -6.4342   32.7736 N   0  0  0  0  0  0  0  0  0  0  0  0
    5.2496   -5.3785   36.0371 H   0  0  0  0  0  0  0  0  0  0  0  0
    4.7577   -3.8475   35.2847 H   0  0  0  0  0  0  0  0  0  0  0  0
    3.5305   -4.9495   35.9973 H   0  0  0  0  0  0  0  0  0  0  0  0
    5.2402   -5.0562   32.3522 H   0  0  0  0  0  0  0  0  0  0  0  0
    6.2376   -4.6606   33.7268 H   0  0  0  0  0  0  0  0  0  0  0  0
    6.4159   -7.9154   34.5597 H   0  0  0  0  0  0  0  0  0  0  0  0
    7.9556   -9.6453   33.6893 H   0  0  0  0  0  0  0  0  0  0  0  0
    9.1313   -9.3490   31.5278 H   0  0  0  0  0  0  0  0  0  0  0  0
    8.8073   -7.2327   30.2555 H   0  0  0  0  0  0  0  0  0  0  0  0
    7.2602   -5.5079   31.0850 H   0  0  0  0  0  0  0  0  0  0  0  0
    1.5678   -3.5881   35.0028 H   0  0  0  0  0  0  0  0  0  0  0  0
    2.3646   -1.5368   36.0828 H   0  0  0  0  0  0  0  0  0  0  0  0
    3.7539    0.0702   34.8228 H   0  0  0  0  0  0  0  0  0  0  0  0
    5.1803   -0.4178   31.6488 H   0  0  0  0  0  0  0  0  0  0  0  0
    2.4873    2.9892   32.1699 H   0  0  0  0  0  0  0  0  0  0  0  0
    2.4072    1.7323   33.4325 H   0  0  0  0  0  0  0  0  0  0  0  0
    3.9647    2.5718   33.0835 H   0  0  0  0  0  0  0  0  0  0  0  0
    3.6438   -2.4981   31.3756 H   0  0  0  0  0  0  0  0  0  0  0  0
    1.3698   -3.2967   30.7161 H   0  0  0  0  0  0  0  0  0  0  0  0
   -0.2190   -4.9491   29.9066 H   0  0  0  0  0  0  0  0  0  0  0  0
   -0.4533   -8.3786   35.1107 H   0  0  0  0  0  0  0  0  0  0  0  0
    1.0394   -7.6251   35.2088 H   0  0  0  0  0  0  0  0  0  0  0  0
  1  2  1  0
  2  3  1  0
  3  4  1  0
  4  5  2  0
  5  6  1  0
  6  7  2  0
  7  8  1  0
  8  9  2  0
  2 10  1  0
 10 11  2  0
 10 12  1  0
 12 13  2  0
 13 14  1  0
 14 15  2  0
 15 16  1  0
 16 17  2  0
 17 18  1  0
 18 19  1  0
 19 20  1  0
 20 21  1  0
 20 22  2  0
 20 23  2  0
 18 24  2  0
 13 25  1  0
 25 26  2  0
 26 27  1  0
 27 28  2  0
 28 29  1  0
 29 30  2  0
 30 31  1  0
 30 32  1  0
  9  4  1  0
 32 12  1  0
 24 14  1  0
 32 27  1  0
  1 33  1  0
  1 34  1  0
  1 35  1  0
  3 36  1  0
  3 37  1  0
  5 38  1  0
  6 39  1  0
  7 40  1  0
  8 41  1  0
  9 42  1  0
 15 43  1  0
 16 44  1  0
 17 45  1  0
 19 46  1  0
 21 47  1  0
 21 48  1  0
 21 49  1  0
 24 50  1  0
 25 51  1  0
 26 52  1  0
 31 53  1  0
 31 54  1  0
M  END
>  <Energy>  (751) 
48.967209291498683

>  <compound_id>  (751) 
3710

>  <target_id>  (751) 
1

>  <reference_id>  (751) 
128

>  <inspiration_ids>  (751) 
[128, 175]

>  <energy_score>  (751) 
-10.325424566240542

>  <distance_score>  (751) 
3.4035789994532326

>  <path>  (751) 
/opt/xchem-fragalysis-2/maxwin/BulkDock/SCRATCH/505734/C3710-P128/C3710-P128.minimised.mol

>  <scratch_subdir>  (751) 
/opt/xchem-fragalysis-2/maxwin/BulkDock/SCRATCH/505734/C3710-P128

>  <fragmenstein_runtime>  (751) 
11.980746507644653

>  <fragmenstein_outcome>  (751) 
too moved

>  <fragmenstein_mode>  (751) 
expansion

>  <fragmenstein_error>  (751) 


$$$$
C3710-P175
     RDKit          3D

 54 57  0  0  0  0  0  0  0  0999 V2000
    5.0527   -3.3309   31.4343 C   0  0  0  0  0  0  0  0  0  0  0  0
    4.4546   -4.6279   31.1964 N   0  0  0  0  0  0  0  0  0  0  0  0
    4.9806   -5.3397   29.9606 C   0  0  0  0  0  0  0  0  0  0  0  0
    6.2504   -6.2471   29.9249 C   0  0  0  0  0  0  0  0  0  0  0  0
    7.2178   -6.3336   30.9394 C   0  0  0  0  0  0  0  0  0  0  0  0
    8.2522   -7.2972   30.8883 C   0  0  0  0  0  0  0  0  0  0  0  0
    8.3668   -8.1691   29.8064 C   0  0  0  0  0  0  0  0  0  0  0  0
    7.4583   -8.0602   28.7594 C   0  0  0  0  0  0  0  0  0  0  0  0
    6.4212   -7.1180   28.8171 C   0  0  0  0  0  0  0  0  0  0  0  0
    3.4547   -5.0965   32.1243 C   0  0  0  0  0  0  0  0  0  0  0  0
    3.6973   -5.7583   33.1304 O   0  0  0  0  0  0  0  0  0  0  0  0
    2.0028   -4.8491   31.7766 C   0  0  0  0  0  0  0  0  0  0  0  0
    1.5756   -3.5885   31.5456 C   0  0  0  0  0  0  0  0  0  0  0  0
    2.1407   -2.4927   32.3495 C   0  0  0  0  0  0  0  0  0  0  0  0
    2.3247   -2.6706   33.7394 C   0  0  0  0  0  0  0  0  0  0  0  0
    2.9220   -1.6818   34.5135 C   0  0  0  0  0  0  0  0  0  0  0  0
    3.3124   -0.4920   33.9113 C   0  0  0  0  0  0  0  0  0  0  0  0
    3.0923   -0.2946   32.5474 C   0  0  0  0  0  0  0  0  0  0  0  0
    3.4619    0.9485   31.9606 N   0  0  0  0  0  0  0  0  0  0  0  0
    2.2697    2.1528   31.9115 S   0  0  0  0  0  0  0  0  0  0  0  0
    2.5485    2.9704   33.4632 C   0  0  0  0  0  0  0  0  0  0  0  0
    2.6879    3.0463   30.8530 O   0  0  0  0  0  0  0  0  0  0  0  0
    0.9579    1.5467   31.9136 O   0  0  0  0  0  0  0  0  0  0  0  0
    2.4854   -1.2760   31.7678 C   0  0  0  0  0  0  0  0  0  0  0  0
    0.4631   -3.4256   30.6145 C   0  0  0  0  0  0  0  0  0  0  0  0
   -0.2385   -4.4758   30.1573 C   0  0  0  0  0  0  0  0  0  0  0  0
   -0.0592   -5.7396   30.7691 C   0  0  0  0  0  0  0  0  0  0  0  0
   -0.7469   -6.8597   30.7267 N   0  0  0  0  0  0  0  0  0  0  0  0
   -0.3453   -7.6150   31.7945 N   0  0  0  0  0  0  0  0  0  0  0  0
    0.6021   -6.9543   32.4309 C   0  0  0  0  0  0  0  0  0  0  0  0
    1.0009   -7.1931   33.6989 N   0  0  0  0  0  0  0  0  0  0  0  0
    1.0106   -5.8649   31.6504 N   0  0  0  0  0  0  0  0  0  0  0  0
    4.8471   -2.9838   32.4468 H   0  0  0  0  0  0  0  0  0  0  0  0
    6.1388   -3.4143   31.3310 H   0  0  0  0  0  0  0  0  0  0  0  0
    4.6853   -2.6236   30.6878 H   0  0  0  0  0  0  0  0  0  0  0  0
    5.1281   -4.5620   29.1998 H   0  0  0  0  0  0  0  0  0  0  0  0
    4.1393   -5.9524   29.6089 H   0  0  0  0  0  0  0  0  0  0  0  0
    7.1390   -5.6988   31.8203 H   0  0  0  0  0  0  0  0  0  0  0  0
    8.9600   -7.3634   31.7121 H   0  0  0  0  0  0  0  0  0  0  0  0
    9.1612   -8.9093   29.7774 H   0  0  0  0  0  0  0  0  0  0  0  0
    7.5457   -8.7218   27.9010 H   0  0  0  0  0  0  0  0  0  0  0  0
    5.7156   -7.0789   27.9888 H   0  0  0  0  0  0  0  0  0  0  0  0
    2.0148   -3.5896   34.2350 H   0  0  0  0  0  0  0  0  0  0  0  0
    3.0757   -1.8364   35.5784 H   0  0  0  0  0  0  0  0  0  0  0  0
    3.7888    0.2788   34.5106 H   0  0  0  0  0  0  0  0  0  0  0  0
    3.8929    0.8937   31.0357 H   0  0  0  0  0  0  0  0  0  0  0  0
    1.9082    3.8551   33.4934 H   0  0  0  0  0  0  0  0  0  0  0  0
    2.2809    2.3000   34.2805 H   0  0  0  0  0  0  0  0  0  0  0  0
    3.5954    3.2732   33.5247 H   0  0  0  0  0  0  0  0  0  0  0  0
    2.3098   -1.0950   30.7110 H   0  0  0  0  0  0  0  0  0  0  0  0
    0.2655   -2.4344   30.2109 H   0  0  0  0  0  0  0  0  0  0  0  0
   -0.9899   -4.3290   29.3899 H   0  0  0  0  0  0  0  0  0  0  0  0
    0.3372   -7.7164   34.2740 H   0  0  0  0  0  0  0  0  0  0  0  0
    1.5023   -6.4786   34.2209 H   0  0  0  0  0  0  0  0  0  0  0  0
  1  2  1  0
  2  3  1  0
  3  4  1  0
  4  5  2  0
  5  6  1  0
  6  7  2  0
  7  8  1  0
  8  9  2  0
  2 10  1  0
 10 11  2  0
 10 12  1  0
 12 13  2  0
 13 14  1  0
 14 15  2  0
 15 16  1  0
 16 17  2  0
 17 18  1  0
 18 19  1  0
 19 20  1  0
 20 21  1  0
 20 22  2  0
 20 23  2  0
 18 24  2  0
 13 25  1  0
 25 26  2  0
 26 27  1  0
 27 28  2  0
 28 29  1  0
 29 30  2  0
 30 31  1  0
 30 32  1  0
  9  4  1  0
 32 12  1  0
 24 14  1  0
 32 27  1  0
  1 33  1  0
  1 34  1  0
  1 35  1  0
  3 36  1  0
  3 37  1  0
  5 38  1  0
  6 39  1  0
  7 40  1  0
  8 41  1  0
  9 42  1  0
 15 43  1  0
 16 44  1  0
 17 45  1  0
 19 46  1  0
 21 47  1  0
 21 48  1  0
 21 49  1  0
 24 50  1  0
 25 51  1  0
 26 52  1  0
 31 53  1  0
 31 54  1  0
M  END
>  <Energy>  (752) 
50.72622625504026

>  <compound_id>  (752) 
3710

>  <target_id>  (752) 
1

>  <reference_id>  (752) 
175

>  <inspiration_ids>  (752) 
[128, 175]

>  <energy_score>  (752) 
-8.566407602696813

>  <distance_score>  (752) 
2.614040455361572

>  <path>  (752) 
/opt/xchem-fragalysis-2/maxwin/BulkDock/SCRATCH/505734/C3710-P175/C3710-P175.minimised.mol

>  <scratch_subdir>  (752) 
/opt/xchem-fragalysis-2/maxwin/BulkDock/SCRATCH/505734/C3710-P175

>  <fragmenstein_runtime>  (752) 
9.426407098770142

>  <fragmenstein_outcome>  (752) 
too moved

>  <fragmenstein_mode>  (752) 
expansion

>  <fragmenstein_error>  (752) 


$$$$
C3710-P128
     RDKit          3D

 54 57  0  0  0  0  0  0  0  0999 V2000
    0.1547   -2.8452   29.2415 C   0  0  0  0  0  0  0  0  0  0  0  0
    0.9362   -3.6388   30.8629 N   0  0  0  0  0  0  0  0  0  0  0  0
    0.7756   -3.1888   29.6504 C   0  0  0  0  0  0  0  0  0  0  0  0
    2.3019   -3.6083   28.7116 C   0  0  0  0  0  0  0  0  0  0  0  0
    2.8030   -2.6783   27.7872 C   0  0  0  0  0  0  0  0  0  0  0  0
    3.9242   -3.0138   27.0288 C   0  0  0  0  0  0  0  0  0  0  0  0
    4.5473   -4.2504   27.2033 C   0  0  0  0  0  0  0  0  0  0  0  0
    4.0690   -5.1555   28.1542 C   0  0  0  0  0  0  0  0  0  0  0  0
    2.9493   -4.8404   28.9214 C   0  0  0  0  0  0  0  0  0  0  0  0
    0.5559   -3.1504   32.3088 C   0  0  0  0  0  0  0  0  0  0  0  0
   -0.0794   -2.2731   32.6935 O   0  0  0  0  0  0  0  0  0  0  0  0
    1.3299   -4.0752   33.1757 C   0  0  0  0  0  0  0  0  0  0  0  0
    2.5076   -3.6528   33.7000 C   0  0  0  0  0  0  0  0  0  0  0  0
    2.9466   -2.2511   33.6027 C   0  0  0  0  0  0  0  0  0  0  0  0
    2.4578   -1.3288   34.5376 C   0  0  0  0  0  0  0  0  0  0  0  0
    2.8904   -0.0066   34.5112 C   0  0  0  0  0  0  0  0  0  0  0  0
    3.8269    0.3961   33.5624 C   0  0  0  0  0  0  0  0  0  0  0  0
    4.3280   -0.5234   32.6390 C   0  0  0  0  0  0  0  0  0  0  0  0
    5.3182   -0.0851   31.7106 N   0  0  0  0  0  0  0  0  0  0  0  0
    4.8745    0.0834   30.0869 S   0  0  0  0  0  0  0  0  0  0  0  0
    5.8375   -1.2212   29.3583 C   0  0  0  0  0  0  0  0  0  0  0  0
    5.4568    1.3415   29.6667 O   0  0  0  0  0  0  0  0  0  0  0  0
    3.4672   -0.1922   29.9078 O   0  0  0  0  0  0  0  0  0  0  0  0
    3.8799   -1.8446   32.6430 C   0  0  0  0  0  0  0  0  0  0  0  0
    3.3271   -4.6285   34.4258 C   0  0  0  0  0  0  0  0  0  0  0  0
    2.9545   -5.9110   34.5657 C   0  0  0  0  0  0  0  0  0  0  0  0
    1.7260   -6.3362   34.0118 C   0  0  0  0  0  0  0  0  0  0  0  0
    1.1477   -7.5099   33.9666 N   0  0  0  0  0  0  0  0  0  0  0  0
   -0.0567   -7.3600   33.3248 N   0  0  0  0  0  0  0  0  0  0  0  0
   -0.2105   -6.0874   33.0482 C   0  0  0  0  0  0  0  0  0  0  0  0
   -1.3393   -5.4950   32.6066 N   0  0  0  0  0  0  0  0  0  0  0  0
    0.9400   -5.3970   33.3683 N   0  0  0  0  0  0  0  0  0  0  0  0
    0.2388   -1.6289   29.0080 H   0  0  0  0  0  0  0  0  0  0  0  0
   -0.9736   -2.6785   29.6871 H   0  0  0  0  0  0  0  0  0  0  0  0
   -0.2941   -3.4863   28.2777 H   0  0  0  0  0  0  0  0  0  0  0  0
    1.6359   -2.3861   30.0639 H   0  0  0  0  0  0  0  0  0  0  0  0
    0.7074   -4.4520   29.4882 H   0  0  0  0  0  0  0  0  0  0  0  0
    2.3315   -1.7076   27.6548 H   0  0  0  0  0  0  0  0  0  0  0  0
    4.3182   -2.3086   26.2990 H   0  0  0  0  0  0  0  0  0  0  0  0
    5.4202   -4.5040   26.6033 H   0  0  0  0  0  0  0  0  0  0  0  0
    4.5776   -6.1062   28.2902 H   0  0  0  0  0  0  0  0  0  0  0  0
    2.5795   -5.5433   29.6610 H   0  0  0  0  0  0  0  0  0  0  0  0
    1.7257   -1.6327   35.2835 H   0  0  0  0  0  0  0  0  0  0  0  0
    2.4947    0.7097   35.2265 H   0  0  0  0  0  0  0  0  0  0  0  0
    4.1552    1.4317   33.5505 H   0  0  0  0  0  0  0  0  0  0  0  0
    5.8331    0.7515   31.9920 H   0  0  0  0  0  0  0  0  0  0  0  0
    5.7464   -1.1386   28.2742 H   0  0  0  0  0  0  0  0  0  0  0  0
    6.8833   -1.0899   29.6432 H   0  0  0  0  0  0  0  0  0  0  0  0
    5.4575   -2.1834   29.7034 H   0  0  0  0  0  0  0  0  0  0  0  0
    4.2653   -2.5581   31.9210 H   0  0  0  0  0  0  0  0  0  0  0  0
    4.2628   -4.2812   34.8578 H   0  0  0  0  0  0  0  0  0  0  0  0
    3.5653   -6.6238   35.1081 H   0  0  0  0  0  0  0  0  0  0  0  0
   -2.1156   -6.1526   32.6385 H   0  0  0  0  0  0  0  0  0  0  0  0
   -1.6059   -4.6523   33.1253 H   0  0  0  0  0  0  0  0  0  0  0  0
  1  2  1  0
  2  3  1  0
  3  4  1  0
  4  5  2  0
  5  6  1  0
  6  7  2  0
  7  8  1  0
  8  9  2  0
  2 10  1  0
 10 11  2  0
 10 12  1  0
 12 13  2  0
 13 14  1  0
 14 15  2  0
 15 16  1  0
 16 17  2  0
 17 18  1  0
 18 19  1  0
 19 20  1  0
 20 21  1  0
 20 22  2  0
 20 23  2  0
 18 24  2  0
 13 25  1  0
 25 26  2  0
 26 27  1  0
 27 28  2  0
 28 29  1  0
 29 30  2  0
 30 31  1  0
 30 32  1  0
  9  4  1  0
 32 12  1  0
 24 14  1  0
 32 27  1  0
  1 33  1  0
  1 34  1  0
  1 35  1  0
  3 36  1  0
  3 37  1  0
  5 38  1  0
  6 39  1  0
  7 40  1  0
  8 41  1  0
  9 42  1  0
 15 43  1  0
 16 44  1  0
 17 45  1  0
 19 46  1  0
 21 47  1  0
 21 48  1  0
 21 49  1  0
 24 50  1  0
 25 51  1  0
 26 52  1  0
 31 53  1  0
 31 54  1  0
M  END
>  <Energy>  (753) 
729.4336071887459

>  <compound_id>  (753) 
3710

>  <target_id>  (753) 
1

>  <reference_id>  (753) 
128

>  <inspiration_ids>  (753) 
[128, 177]

>  <energy_score>  (753) 
685.0081449832342

>  <distance_score>  (753) 
2.8794366783744283

>  <path>  (753) 
/opt/xchem-fragalysis-2/maxwin/BulkDock/SCRATCH/505734/C3710-P128/C3710-P128.minimised.mol

>  <scratch_subdir>  (753) 
/opt/xchem-fragalysis-2/maxwin/BulkDock/SCRATCH/505734/C3710-P128

>  <fragmenstein_runtime>  (753) 
16.48120927810669

>  <fragmenstein_outcome>  (753) 
too moved

>  <fragmenstein_mode>  (753) 
expansion

>  <fragmenstein_error>  (753) 


$$$$
C3710-P177
     RDKit          3D

 54 57  0  0  0  0  0  0  0  0999 V2000
   -0.6096   -1.1899   32.3373 C   0  0  0  0  0  0  0  0  0  0  0  0
   -0.2370   -2.4536   32.4484 N   0  0  0  0  0  0  0  0  0  0  0  0
   -0.5344   -0.6630   31.7228 C   0  0  0  0  0  0  0  0  0  0  0  0
    0.0184   -1.0555   30.0868 C   0  0  0  0  0  0  0  0  0  0  0  0
    1.0068   -0.2844   29.4680 C   0  0  0  0  0  0  0  0  0  0  0  0
    1.4548   -0.6578   28.1998 C   0  0  0  0  0  0  0  0  0  0  0  0
    0.9524   -1.8012   27.5725 C   0  0  0  0  0  0  0  0  0  0  0  0
   -0.0397   -2.5600   28.1907 C   0  0  0  0  0  0  0  0  0  0  0  0
   -0.5205   -2.1870   29.4449 C   0  0  0  0  0  0  0  0  0  0  0  0
    0.2184   -3.0947   33.8900 C   0  0  0  0  0  0  0  0  0  0  0  0
    0.3973   -2.6357   34.9252 O   0  0  0  0  0  0  0  0  0  0  0  0
    0.4399   -4.4986   33.4357 C   0  0  0  0  0  0  0  0  0  0  0  0
    1.2897   -4.6487   32.3823 C   0  0  0  0  0  0  0  0  0  0  0  0
    2.4755   -3.7570   32.2000 C   0  0  0  0  0  0  0  0  0  0  0  0
    3.2532   -3.4101   33.3217 C   0  0  0  0  0  0  0  0  0  0  0  0
    4.4023   -2.6326   33.1920 C   0  0  0  0  0  0  0  0  0  0  0  0
    4.8162   -2.2150   31.9311 C   0  0  0  0  0  0  0  0  0  0  0  0
    4.0603   -2.5371   30.8028 C   0  0  0  0  0  0  0  0  0  0  0  0
    4.5640   -2.3442   29.4696 N   0  0  0  0  0  0  0  0  0  0  0  0
    5.3166   -0.8665   29.1179 S   0  0  0  0  0  0  0  0  0  0  0  0
    5.2615   -0.8847   27.3400 C   0  0  0  0  0  0  0  0  0  0  0  0
    6.6998   -0.9924   29.5264 O   0  0  0  0  0  0  0  0  0  0  0  0
    4.4872    0.2201   29.5928 O   0  0  0  0  0  0  0  0  0  0  0  0
    2.9062   -3.3192   30.9399 C   0  0  0  0  0  0  0  0  0  0  0  0
    0.9182   -5.6923   31.4260 C   0  0  0  0  0  0  0  0  0  0  0  0
   -0.0163   -6.6239   31.6886 C   0  0  0  0  0  0  0  0  0  0  0  0
   -0.6387   -6.6278   32.9575 C   0  0  0  0  0  0  0  0  0  0  0  0
   -1.4772   -7.4540   33.5316 N   0  0  0  0  0  0  0  0  0  0  0  0
   -1.7141   -6.9862   34.8051 N   0  0  0  0  0  0  0  0  0  0  0  0
   -1.0445   -5.8643   34.9667 C   0  0  0  0  0  0  0  0  0  0  0  0
   -0.9071   -5.1514   36.1005 N   0  0  0  0  0  0  0  0  0  0  0  0
   -0.3994   -5.5463   33.7883 N   0  0  0  0  0  0  0  0  0  0  0  0
   -1.1745   -0.7416   33.3992 H   0  0  0  0  0  0  0  0  0  0  0  0
    0.2701   -0.9605   33.2371 H   0  0  0  0  0  0  0  0  0  0  0  0
   -1.7507   -1.7109   32.4718 H   0  0  0  0  0  0  0  0  0  0  0  0
    0.2776    0.2630   31.8759 H   0  0  0  0  0  0  0  0  0  0  0  0
   -1.6250   -0.2397   31.2737 H   0  0  0  0  0  0  0  0  0  0  0  0
    1.4450    0.5847   29.9501 H   0  0  0  0  0  0  0  0  0  0  0  0
    2.2046   -0.0486   27.7013 H   0  0  0  0  0  0  0  0  0  0  0  0
    1.3290   -2.0923   26.5951 H   0  0  0  0  0  0  0  0  0  0  0  0
   -0.4464   -3.4357   27.6913 H   0  0  0  0  0  0  0  0  0  0  0  0
   -1.2895   -2.7868   29.9216 H   0  0  0  0  0  0  0  0  0  0  0  0
    2.9814   -3.7501   34.3201 H   0  0  0  0  0  0  0  0  0  0  0  0
    4.9909   -2.3774   34.0698 H   0  0  0  0  0  0  0  0  0  0  0  0
    5.7462   -1.6584   31.8490 H   0  0  0  0  0  0  0  0  0  0  0  0
    5.1972   -3.1063   29.2151 H   0  0  0  0  0  0  0  0  0  0  0  0
    5.7028    0.0492   26.9864 H   0  0  0  0  0  0  0  0  0  0  0  0
    5.8456   -1.7327   26.9773 H   0  0  0  0  0  0  0  0  0  0  0  0
    4.2273   -0.9559   27.0057 H   0  0  0  0  0  0  0  0  0  0  0  0
    2.3488   -3.5781   30.0439 H   0  0  0  0  0  0  0  0  0  0  0  0
    1.3539   -5.6239   30.4356 H   0  0  0  0  0  0  0  0  0  0  0  0
   -0.3084   -7.3673   30.9553 H   0  0  0  0  0  0  0  0  0  0  0  0
   -1.5423   -5.3604   36.8637 H   0  0  0  0  0  0  0  0  0  0  0  0
   -0.6209   -4.1719   36.0752 H   0  0  0  0  0  0  0  0  0  0  0  0
  1  2  1  0
  2  3  1  0
  3  4  1  0
  4  5  2  0
  5  6  1  0
  6  7  2  0
  7  8  1  0
  8  9  2  0
  2 10  1  0
 10 11  2  0
 10 12  1  0
 12 13  2  0
 13 14  1  0
 14 15  2  0
 15 16  1  0
 16 17  2  0
 17 18  1  0
 18 19  1  0
 19 20  1  0
 20 21  1  0
 20 22  2  0
 20 23  2  0
 18 24  2  0
 13 25  1  0
 25 26  2  0
 26 27  1  0
 27 28  2  0
 28 29  1  0
 29 30  2  0
 30 31  1  0
 30 32  1  0
  9  4  1  0
 32 12  1  0
 24 14  1  0
 32 27  1  0
  1 33  1  0
  1 34  1  0
  1 35  1  0
  3 36  1  0
  3 37  1  0
  5 38  1  0
  6 39  1  0
  7 40  1  0
  8 41  1  0
  9 42  1  0
 15 43  1  0
 16 44  1  0
 17 45  1  0
 19 46  1  0
 21 47  1  0
 21 48  1  0
 21 49  1  0
 24 50  1  0
 25 51  1  0
 26 52  1  0
 31 53  1  0
 31 54  1  0
M  END
>  <Energy>  (754) 
736.76980926252691

>  <compound_id>  (754) 
3710

>  <target_id>  (754) 
1

>  <reference_id>  (754) 
177

>  <inspiration_ids>  (754) 
[128, 177]

>  <energy_score>  (754) 
692.3443470570068

>  <distance_score>  (754) 
3.700028766824764

>  <path>  (754) 
/opt/xchem-fragalysis-2/maxwin/BulkDock/SCRATCH/505734/C3710-P177/C3710-P177.minimised.mol

>  <scratch_subdir>  (754) 
/opt/xchem-fragalysis-2/maxwin/BulkDock/SCRATCH/505734/C3710-P177

>  <fragmenstein_runtime>  (754) 
12.775822877883911

>  <fragmenstein_outcome>  (754) 
too moved

>  <fragmenstein_mode>  (754) 
expansion

>  <fragmenstein_error>  (754) 


$$$$
C3711-P128
     RDKit          3D

 41 43  0  0  0  0  0  0  0  0999 V2000
    0.4407   -2.6516   39.5002 C   0  0  0  0  0  0  0  0  0  0  0  0
    0.8089   -2.9034   38.1390 N   0  0  0  0  0  0  0  0  0  0  0  0
    2.1438   -2.6856   37.4091 C   0  0  0  0  0  0  0  0  0  0  0  0
    3.1338   -2.1960   37.7767 O   0  0  0  0  0  0  0  0  0  0  0  0
    2.0520   -3.1567   36.0126 C   0  0  0  0  0  0  0  0  0  0  0  0
    1.8150   -2.2088   35.0043 C   0  0  0  0  0  0  0  0  0  0  0  0
    1.4958   -2.6378   33.7117 C   0  0  0  0  0  0  0  0  0  0  0  0
    1.5469   -3.9946   33.4285 C   0  0  0  0  0  0  0  0  0  0  0  0
    0.7580   -4.6739   32.3973 C   0  0  0  0  0  0  0  0  0  0  0  0
    1.1675   -4.9387   31.0315 C   0  0  0  0  0  0  0  0  0  0  0  0
    0.6383   -5.9666   30.3395 C   0  0  0  0  0  0  0  0  0  0  0  0
   -0.3188   -6.8278   30.9485 C   0  0  0  0  0  0  0  0  0  0  0  0
   -0.9529   -7.9132   30.5610 N   0  0  0  0  0  0  0  0  0  0  0  0
   -1.6237   -8.4190   31.6608 N   0  0  0  0  0  0  0  0  0  0  0  0
   -1.3848   -7.6347   32.6905 C   0  0  0  0  0  0  0  0  0  0  0  0
   -1.6561   -7.8423   34.0062 N   0  0  0  0  0  0  0  0  0  0  0  0
   -0.6875   -6.5327   32.2452 N   0  0  0  0  0  0  0  0  0  0  0  0
   -0.2334   -5.4241   32.9325 C   0  0  0  0  0  0  0  0  0  0  0  0
    2.0821   -4.8845   34.3634 C   0  0  0  0  0  0  0  0  0  0  0  0
    2.1707   -4.5072   35.6905 C   0  0  0  0  0  0  0  0  0  0  0  0
    2.1306   -5.5754   36.6500 N   0  0  0  0  0  0  0  0  0  0  0  0
    0.5964   -6.2960   36.8848 S   0  0  0  0  0  0  0  0  0  0  0  0
    0.8539   -6.9589   38.5008 C   0  0  0  0  0  0  0  0  0  0  0  0
    0.5043   -7.3772   35.9271 O   0  0  0  0  0  0  0  0  0  0  0  0
   -0.4179   -5.2680   36.9591 O   0  0  0  0  0  0  0  0  0  0  0  0
   -0.5322   -2.1563   39.5136 H   0  0  0  0  0  0  0  0  0  0  0  0
    0.3751   -3.6085   40.0228 H   0  0  0  0  0  0  0  0  0  0  0  0
    1.1976   -2.0226   39.9735 H   0  0  0  0  0  0  0  0  0  0  0  0
    0.1772   -3.4415   37.5415 H   0  0  0  0  0  0  0  0  0  0  0  0
    1.7394   -1.1536   35.2601 H   0  0  0  0  0  0  0  0  0  0  0  0
    1.1031   -1.9282   32.9873 H   0  0  0  0  0  0  0  0  0  0  0  0
    1.9229   -4.2977   30.5866 H   0  0  0  0  0  0  0  0  0  0  0  0
    0.9826   -6.1721   29.3397 H   0  0  0  0  0  0  0  0  0  0  0  0
   -1.8307   -8.8322   34.2292 H   0  0  0  0  0  0  0  0  0  0  0  0
   -0.9403   -7.5467   34.6764 H   0  0  0  0  0  0  0  0  0  0  0  0
   -0.5838   -5.3355   33.9567 H   0  0  0  0  0  0  0  0  0  0  0  0
    2.1457   -5.9447   34.1155 H   0  0  0  0  0  0  0  0  0  0  0  0
    2.8026   -6.3124   36.4262 H   0  0  0  0  0  0  0  0  0  0  0  0
    1.0612   -6.1415   39.1939 H   0  0  0  0  0  0  0  0  0  0  0  0
   -0.0551   -7.4775   38.8079 H   0  0  0  0  0  0  0  0  0  0  0  0
    1.6852   -7.6659   38.4694 H   0  0  0  0  0  0  0  0  0  0  0  0
  1  2  1  0
  2  3  1  0
  3  4  2  0
  3  5  1  0
  5  6  2  0
  6  7  1  0
  7  8  2  0
  8  9  1  0
  9 10  1  0
 10 11  2  0
 11 12  1  0
 12 13  2  0
 13 14  1  0
 14 15  2  0
 15 16  1  0
 15 17  1  0
 17 18  1  0
  8 19  1  0
 19 20  2  0
 20 21  1  0
 21 22  1  0
 22 23  1  0
 22 24  2  0
 22 25  2  0
 20  5  1  0
 18  9  2  0
 17 12  1  0
  1 26  1  0
  1 27  1  0
  1 28  1  0
  2 29  1  0
  6 30  1  0
  7 31  1  0
 10 32  1  0
 11 33  1  0
 16 34  1  0
 16 35  1  0
 18 36  1  0
 19 37  1  0
 21 38  1  0
 23 39  1  0
 23 40  1  0
 23 41  1  0
M  END
>  <Energy>  (755) 
30.172263207228433

>  <compound_id>  (755) 
3711

>  <target_id>  (755) 
1

>  <reference_id>  (755) 
128

>  <inspiration_ids>  (755) 
[128, 183]

>  <energy_score>  (755) 
-19.74024090802226

>  <distance_score>  (755) 
3.0717665146103834

>  <path>  (755) 
/opt/xchem-fragalysis-2/maxwin/BulkDock/SCRATCH/505734/C3711-P128/C3711-P128.minimised.mol

>  <scratch_subdir>  (755) 
/opt/xchem-fragalysis-2/maxwin/BulkDock/SCRATCH/505734/C3711-P128

>  <fragmenstein_runtime>  (755) 
4.697767972946167

>  <fragmenstein_outcome>  (755) 
too moved

>  <fragmenstein_mode>  (755) 
expansion

>  <fragmenstein_error>  (755) 


$$$$
C3711-P183
     RDKit          3D

 41 43  0  0  0  0  0  0  0  0999 V2000
    0.9270   -0.6996   38.9544 C   0  0  0  0  0  0  0  0  0  0  0  0
    1.2102   -1.3867   37.7282 N   0  0  0  0  0  0  0  0  0  0  0  0
    2.1145   -2.6018   37.4478 C   0  0  0  0  0  0  0  0  0  0  0  0
    2.8325   -3.1894   38.1551 O   0  0  0  0  0  0  0  0  0  0  0  0
    2.0292   -3.0612   36.0269 C   0  0  0  0  0  0  0  0  0  0  0  0
    1.8871   -2.1609   34.9541 C   0  0  0  0  0  0  0  0  0  0  0  0
    1.5795   -2.6389   33.6734 C   0  0  0  0  0  0  0  0  0  0  0  0
    1.5563   -4.0073   33.4590 C   0  0  0  0  0  0  0  0  0  0  0  0
    0.8013   -4.6993   32.4136 C   0  0  0  0  0  0  0  0  0  0  0  0
    1.2482   -4.9745   31.0628 C   0  0  0  0  0  0  0  0  0  0  0  0
    0.7367   -6.0075   30.3652 C   0  0  0  0  0  0  0  0  0  0  0  0
   -0.2441   -6.8603   30.9485 C   0  0  0  0  0  0  0  0  0  0  0  0
   -0.8831   -7.9400   30.5503 N   0  0  0  0  0  0  0  0  0  0  0  0
   -1.5646   -8.4483   31.6446 N   0  0  0  0  0  0  0  0  0  0  0  0
   -1.3216   -7.6704   32.6782 C   0  0  0  0  0  0  0  0  0  0  0  0
   -1.5894   -7.8745   33.9948 N   0  0  0  0  0  0  0  0  0  0  0  0
   -0.6324   -6.5634   32.2370 N   0  0  0  0  0  0  0  0  0  0  0  0
   -0.2018   -5.4483   32.9269 C   0  0  0  0  0  0  0  0  0  0  0  0
    2.0216   -4.8706   34.4499 C   0  0  0  0  0  0  0  0  0  0  0  0
    2.0944   -4.4358   35.7561 C   0  0  0  0  0  0  0  0  0  0  0  0
    2.0541   -5.4570   36.7704 N   0  0  0  0  0  0  0  0  0  0  0  0
    0.5822   -6.3093   36.9296 S   0  0  0  0  0  0  0  0  0  0  0  0
    0.9256   -7.1843   38.4238 C   0  0  0  0  0  0  0  0  0  0  0  0
    0.4879   -7.2724   35.8510 O   0  0  0  0  0  0  0  0  0  0  0  0
   -0.4822   -5.3641   37.1778 O   0  0  0  0  0  0  0  0  0  0  0  0
    1.4732   -1.1718   39.7736 H   0  0  0  0  0  0  0  0  0  0  0  0
    1.2346    0.3428   38.8474 H   0  0  0  0  0  0  0  0  0  0  0  0
   -0.1481   -0.7494   39.1399 H   0  0  0  0  0  0  0  0  0  0  0  0
    0.7814   -1.0788   36.8655 H   0  0  0  0  0  0  0  0  0  0  0  0
    1.9104   -1.0864   35.1152 H   0  0  0  0  0  0  0  0  0  0  0  0
    1.2688   -1.9474   32.8939 H   0  0  0  0  0  0  0  0  0  0  0  0
    2.0277   -4.3488   30.6391 H   0  0  0  0  0  0  0  0  0  0  0  0
    1.1274   -6.2311   29.3873 H   0  0  0  0  0  0  0  0  0  0  0  0
   -1.7626   -8.8620   34.2281 H   0  0  0  0  0  0  0  0  0  0  0  0
   -0.8722   -7.5660   34.6614 H   0  0  0  0  0  0  0  0  0  0  0  0
   -0.5769   -5.3575   33.9424 H   0  0  0  0  0  0  0  0  0  0  0  0
    2.0744   -5.9429   34.2588 H   0  0  0  0  0  0  0  0  0  0  0  0
    2.3482   -5.0514   37.6734 H   0  0  0  0  0  0  0  0  0  0  0  0
    0.0633   -7.8100   38.6596 H   0  0  0  0  0  0  0  0  0  0  0  0
    1.8041   -7.8153   38.2751 H   0  0  0  0  0  0  0  0  0  0  0  0
    1.0901   -6.4676   39.2306 H   0  0  0  0  0  0  0  0  0  0  0  0
  1  2  1  0
  2  3  1  0
  3  4  2  0
  3  5  1  0
  5  6  2  0
  6  7  1  0
  7  8  2  0
  8  9  1  0
  9 10  1  0
 10 11  2  0
 11 12  1  0
 12 13  2  0
 13 14  1  0
 14 15  2  0
 15 16  1  0
 15 17  1  0
 17 18  1  0
  8 19  1  0
 19 20  2  0
 20 21  1  0
 21 22  1  0
 22 23  1  0
 22 24  2  0
 22 25  2  0
 20  5  1  0
 18  9  2  0
 17 12  1  0
  1 26  1  0
  1 27  1  0
  1 28  1  0
  2 29  1  0
  6 30  1  0
  7 31  1  0
 10 32  1  0
 11 33  1  0
 16 34  1  0
 16 35  1  0
 18 36  1  0
 19 37  1  0
 21 38  1  0
 23 39  1  0
 23 40  1  0
 23 41  1  0
M  END
>  <Energy>  (756) 
27.92713458211583

>  <compound_id>  (756) 
3711

>  <target_id>  (756) 
1

>  <reference_id>  (756) 
183

>  <inspiration_ids>  (756) 
[128, 183]

>  <energy_score>  (756) 
-21.985369533137543

>  <distance_score>  (756) 
2.6095344999287957

>  <path>  (756) 
/opt/xchem-fragalysis-2/maxwin/BulkDock/SCRATCH/505734/C3711-P183/C3711-P183.minimised.mol

>  <scratch_subdir>  (756) 
/opt/xchem-fragalysis-2/maxwin/BulkDock/SCRATCH/505734/C3711-P183

>  <fragmenstein_runtime>  (756) 
4.223829746246338

>  <fragmenstein_outcome>  (756) 
too moved

>  <fragmenstein_mode>  (756) 
expansion

>  <fragmenstein_error>  (756) 


$$$$
C3712-P128
     RDKit          3D

 52 55  0  0  0  0  0  0  0  0999 V2000
   -1.0090   -1.9874   28.3677 C   0  0  0  0  0  0  0  0  0  0  0  0
   -0.3821   -1.7651   29.7023 C   0  0  0  0  0  0  0  0  0  0  0  0
    0.6583   -2.3447   30.0190 O   0  0  0  0  0  0  0  0  0  0  0  0
   -0.9957   -0.7016   30.5509 C   0  0  0  0  0  0  0  0  0  0  0  0
   -0.1075    0.5263   30.5703 C   0  0  0  0  0  0  0  0  0  0  0  0
    0.0388    1.2263   29.2334 C   0  0  0  0  0  0  0  0  0  0  0  0
   -1.0673    1.6830   28.5048 C   0  0  0  0  0  0  0  0  0  0  0  0
   -0.8994    2.4019   27.3198 C   0  0  0  0  0  0  0  0  0  0  0  0
    0.3796    2.6686   26.8418 C   0  0  0  0  0  0  0  0  0  0  0  0
    1.4903    2.2039   27.5410 C   0  0  0  0  0  0  0  0  0  0  0  0
    1.3217    1.4900   28.7294 C   0  0  0  0  0  0  0  0  0  0  0  0
   -1.3820   -1.3479   32.1631 S   0  0  0  0  0  0  0  0  0  0  0  0
   -2.4591   -0.5059   32.6492 O   0  0  0  0  0  0  0  0  0  0  0  0
   -1.6131   -2.7753   32.0620 O   0  0  0  0  0  0  0  0  0  0  0  0
   -0.1034   -0.9306   33.1931 N   0  0  0  0  0  0  0  0  0  0  0  0
    1.0717   -1.7200   33.2899 C   0  0  0  0  0  0  0  0  0  0  0  0
    2.3343   -1.1731   33.0876 C   0  0  0  0  0  0  0  0  0  0  0  0
    3.4145   -2.0291   32.8763 C   0  0  0  0  0  0  0  0  0  0  0  0
    3.2050   -3.4113   32.8082 C   0  0  0  0  0  0  0  0  0  0  0  0
    1.9426   -3.9364   33.0809 C   0  0  0  0  0  0  0  0  0  0  0  0
    1.4513   -5.2246   32.5675 C   0  0  0  0  0  0  0  0  0  0  0  0
    1.3908   -5.4333   31.1201 C   0  0  0  0  0  0  0  0  0  0  0  0
    0.5223   -6.2902   30.5652 C   0  0  0  0  0  0  0  0  0  0  0  0
   -0.3279   -7.0639   31.3829 C   0  0  0  0  0  0  0  0  0  0  0  0
   -1.2552   -7.9508   31.1081 N   0  0  0  0  0  0  0  0  0  0  0  0
   -1.7900   -8.3563   32.3054 N   0  0  0  0  0  0  0  0  0  0  0  0
   -1.1966   -7.7061   33.2846 C   0  0  0  0  0  0  0  0  0  0  0  0
   -1.4238   -7.8361   34.6163 N   0  0  0  0  0  0  0  0  0  0  0  0
   -0.2276   -6.8829   32.7524 N   0  0  0  0  0  0  0  0  0  0  0  0
    0.6555   -5.9858   33.3509 C   0  0  0  0  0  0  0  0  0  0  0  0
    0.9204   -3.0781   33.4583 C   0  0  0  0  0  0  0  0  0  0  0  0
   -2.0922   -1.8870   28.4162 H   0  0  0  0  0  0  0  0  0  0  0  0
   -0.7733   -3.0101   28.0708 H   0  0  0  0  0  0  0  0  0  0  0  0
   -0.6000   -1.2656   27.6616 H   0  0  0  0  0  0  0  0  0  0  0  0
   -1.9768   -0.4479   30.1332 H   0  0  0  0  0  0  0  0  0  0  0  0
    0.8934    0.2471   30.9208 H   0  0  0  0  0  0  0  0  0  0  0  0
   -0.4719    1.2564   31.3002 H   0  0  0  0  0  0  0  0  0  0  0  0
   -2.0819    1.5204   28.8539 H   0  0  0  0  0  0  0  0  0  0  0  0
   -1.7719    2.7730   26.7844 H   0  0  0  0  0  0  0  0  0  0  0  0
    0.5087    3.2442   25.9291 H   0  0  0  0  0  0  0  0  0  0  0  0
    2.4902    2.4091   27.1670 H   0  0  0  0  0  0  0  0  0  0  0  0
    2.2082    1.1532   29.2629 H   0  0  0  0  0  0  0  0  0  0  0  0
   -0.0717    0.0404   33.4963 H   0  0  0  0  0  0  0  0  0  0  0  0
    2.4762   -0.1003   33.0065 H   0  0  0  0  0  0  0  0  0  0  0  0
    4.3981   -1.6194   32.6596 H   0  0  0  0  0  0  0  0  0  0  0  0
    4.0115   -4.0596   32.4758 H   0  0  0  0  0  0  0  0  0  0  0  0
    2.0009   -4.7965   30.4834 H   0  0  0  0  0  0  0  0  0  0  0  0
    0.4451   -6.3695   29.4995 H   0  0  0  0  0  0  0  0  0  0  0  0
   -0.6789   -7.5923   35.2587 H   0  0  0  0  0  0  0  0  0  0  0  0
   -1.7119   -8.8034   34.8437 H   0  0  0  0  0  0  0  0  0  0  0  0
    0.5411   -5.8327   34.4169 H   0  0  0  0  0  0  0  0  0  0  0  0
   -0.0720   -3.4726   33.6678 H   0  0  0  0  0  0  0  0  0  0  0  0
  1  2  1  0
  2  3  2  0
  2  4  1  0
  4  5  1  0
  5  6  1  0
  6  7  2  0
  7  8  1  0
  8  9  2  0
  9 10  1  0
 10 11  2  0
  4 12  1  0
 12 13  2  0
 12 14  2  0
 12 15  1  0
 15 16  1  0
 16 17  2  0
 17 18  1  0
 18 19  2  0
 19 20  1  0
 20 21  1  0
 21 22  1  0
 22 23  2  0
 23 24  1  0
 24 25  2  0
 25 26  1  0
 26 27  2  0
 27 28  1  0
 27 29  1  0
 29 30  1  0
 20 31  2  0
 11  6  1  0
 31 16  1  0
 30 21  2  0
 29 24  1  0
  1 32  1  0
  1 33  1  0
  1 34  1  0
  4 35  1  0
  5 36  1  0
  5 37  1  0
  7 38  1  0
  8 39  1  0
  9 40  1  0
 10 41  1  0
 11 42  1  0
 15 43  1  0
 17 44  1  0
 18 45  1  0
 19 46  1  0
 22 47  1  0
 23 48  1  0
 28 49  1  0
 28 50  1  0
 30 51  1  0
 31 52  1  0
M  END
>  <Energy>  (757) 
2.6980262980494478

>  <compound_id>  (757) 
3712

>  <target_id>  (757) 
1

>  <reference_id>  (757) 
128

>  <inspiration_ids>  (757) 
[128, 186]

>  <energy_score>  (757) 
-39.796994699133336

>  <distance_score>  (757) 
1.4355022010346612

>  <path>  (757) 
/opt/xchem-fragalysis-2/maxwin/BulkDock/SCRATCH/505734/C3712-P128/C3712-P128.minimised.mol

>  <scratch_subdir>  (757) 
/opt/xchem-fragalysis-2/maxwin/BulkDock/SCRATCH/505734/C3712-P128

>  <fragmenstein_runtime>  (757) 
10.614960670471191

>  <fragmenstein_outcome>  (757) 
too moved

>  <fragmenstein_mode>  (757) 
expansion

>  <fragmenstein_error>  (757) 


$$$$
C3712-P186
     RDKit          3D

 52 55  0  0  0  0  0  0  0  0999 V2000
   -0.7325   -1.7683   27.9970 C   0  0  0  0  0  0  0  0  0  0  0  0
   -0.2946   -1.7470   29.4425 C   0  0  0  0  0  0  0  0  0  0  0  0
    0.7594   -2.2845   29.7774 O   0  0  0  0  0  0  0  0  0  0  0  0
   -1.1879   -1.0217   30.3971 C   0  0  0  0  0  0  0  0  0  0  0  0
   -1.1488    0.4914   30.3194 C   0  0  0  0  0  0  0  0  0  0  0  0
    0.1772    1.1744   30.1315 C   0  0  0  0  0  0  0  0  0  0  0  0
    0.7226    1.3512   28.8543 C   0  0  0  0  0  0  0  0  0  0  0  0
    1.9292    2.0296   28.6765 C   0  0  0  0  0  0  0  0  0  0  0  0
    2.6046    2.5500   29.7758 C   0  0  0  0  0  0  0  0  0  0  0  0
    2.0680    2.3985   31.0512 C   0  0  0  0  0  0  0  0  0  0  0  0
    0.8609    1.7177   31.2273 C   0  0  0  0  0  0  0  0  0  0  0  0
   -1.2203   -1.6926   32.0334 S   0  0  0  0  0  0  0  0  0  0  0  0
   -2.3476   -1.0507   32.6889 O   0  0  0  0  0  0  0  0  0  0  0  0
   -1.2393   -3.1382   31.9429 O   0  0  0  0  0  0  0  0  0  0  0  0
    0.0931   -1.0426   32.8964 N   0  0  0  0  0  0  0  0  0  0  0  0
    1.2829   -1.8147   33.0409 C   0  0  0  0  0  0  0  0  0  0  0  0
    2.5212   -1.2671   32.7317 C   0  0  0  0  0  0  0  0  0  0  0  0
    3.6097   -2.1178   32.5664 C   0  0  0  0  0  0  0  0  0  0  0  0
    3.4111   -3.4993   32.6230 C   0  0  0  0  0  0  0  0  0  0  0  0
    2.1693   -4.0042   33.0104 C   0  0  0  0  0  0  0  0  0  0  0  0
    1.6147   -5.2607   32.4722 C   0  0  0  0  0  0  0  0  0  0  0  0
    1.4610   -5.4081   31.0198 C   0  0  0  0  0  0  0  0  0  0  0  0
    0.5495   -6.2299   30.4777 C   0  0  0  0  0  0  0  0  0  0  0  0
   -0.2660   -7.0246   31.3112 C   0  0  0  0  0  0  0  0  0  0  0  0
   -1.2178   -7.8991   31.0683 N   0  0  0  0  0  0  0  0  0  0  0  0
   -1.6839   -8.3397   32.2864 N   0  0  0  0  0  0  0  0  0  0  0  0
   -1.0336   -7.7043   33.2362 C   0  0  0  0  0  0  0  0  0  0  0  0
   -1.1586   -7.8353   34.5796 N   0  0  0  0  0  0  0  0  0  0  0  0
   -0.0852   -6.8861   32.6751 N   0  0  0  0  0  0  0  0  0  0  0  0
    0.8468   -6.0366   33.2644 C   0  0  0  0  0  0  0  0  0  0  0  0
    1.1824   -3.1285   33.4383 C   0  0  0  0  0  0  0  0  0  0  0  0
    0.0683   -1.3673   27.3715 H   0  0  0  0  0  0  0  0  0  0  0  0
   -1.6330   -1.1695   27.8433 H   0  0  0  0  0  0  0  0  0  0  0  0
   -0.9397   -2.8006   27.7084 H   0  0  0  0  0  0  0  0  0  0  0  0
   -2.1952   -1.3036   30.0776 H   0  0  0  0  0  0  0  0  0  0  0  0
   -1.6316    0.9090   31.2077 H   0  0  0  0  0  0  0  0  0  0  0  0
   -1.7850    0.8102   29.4816 H   0  0  0  0  0  0  0  0  0  0  0  0
    0.2076    0.9920   27.9689 H   0  0  0  0  0  0  0  0  0  0  0  0
    2.3278    2.1653   27.6727 H   0  0  0  0  0  0  0  0  0  0  0  0
    3.5390    3.0860   29.6337 H   0  0  0  0  0  0  0  0  0  0  0  0
    2.5863    2.8197   31.9085 H   0  0  0  0  0  0  0  0  0  0  0  0
    0.4569    1.6301   32.2324 H   0  0  0  0  0  0  0  0  0  0  0  0
   -0.2445   -0.6421   33.7736 H   0  0  0  0  0  0  0  0  0  0  0  0
    2.6277   -0.2122   32.5058 H   0  0  0  0  0  0  0  0  0  0  0  0
    4.5687   -1.7174   32.2478 H   0  0  0  0  0  0  0  0  0  0  0  0
    4.1924   -4.1661   32.2670 H   0  0  0  0  0  0  0  0  0  0  0  0
    2.0485   -4.7586   30.3735 H   0  0  0  0  0  0  0  0  0  0  0  0
    0.4165   -6.2612   29.4136 H   0  0  0  0  0  0  0  0  0  0  0  0
   -1.5890   -8.7472   34.7986 H   0  0  0  0  0  0  0  0  0  0  0  0
   -1.7115   -7.1030   35.0132 H   0  0  0  0  0  0  0  0  0  0  0  0
    0.8023   -5.9457   34.3429 H   0  0  0  0  0  0  0  0  0  0  0  0
    0.2168   -3.5122   33.7587 H   0  0  0  0  0  0  0  0  0  0  0  0
  1  2  1  0
  2  3  2  0
  2  4  1  0
  4  5  1  0
  5  6  1  0
  6  7  2  0
  7  8  1  0
  8  9  2  0
  9 10  1  0
 10 11  2  0
  4 12  1  0
 12 13  2  0
 12 14  2  0
 12 15  1  0
 15 16  1  0
 16 17  2  0
 17 18  1  0
 18 19  2  0
 19 20  1  0
 20 21  1  0
 21 22  1  0
 22 23  2  0
 23 24  1  0
 24 25  2  0
 25 26  1  0
 26 27  2  0
 27 28  1  0
 27 29  1  0
 29 30  1  0
 20 31  2  0
 11  6  1  0
 31 16  1  0
 30 21  2  0
 29 24  1  0
  1 32  1  0
  1 33  1  0
  1 34  1  0
  4 35  1  0
  5 36  1  0
  5 37  1  0
  7 38  1  0
  8 39  1  0
  9 40  1  0
 10 41  1  0
 11 42  1  0
 15 43  1  0
 17 44  1  0
 18 45  1  0
 19 46  1  0
 22 47  1  0
 23 48  1  0
 28 49  1  0
 28 50  1  0
 30 51  1  0
 31 52  1  0
M  END
>  <Energy>  (758) 
17.939544626836895

>  <compound_id>  (758) 
3712

>  <target_id>  (758) 
1

>  <reference_id>  (758) 
186

>  <inspiration_ids>  (758) 
[128, 186]

>  <energy_score>  (758) 
-24.555476370346355

>  <distance_score>  (758) 
1.4394037206881116

>  <path>  (758) 
/opt/xchem-fragalysis-2/maxwin/BulkDock/SCRATCH/505734/C3712-P186/C3712-P186.minimised.mol

>  <scratch_subdir>  (758) 
/opt/xchem-fragalysis-2/maxwin/BulkDock/SCRATCH/505734/C3712-P186

>  <fragmenstein_runtime>  (758) 
10.784416437149048

>  <fragmenstein_outcome>  (758) 
too moved

>  <fragmenstein_mode>  (758) 
expansion

>  <fragmenstein_error>  (758) 


$$$$
C3713-P128
     RDKit          3D

 68 71  0  0  0  0  0  0  0  0999 V2000
    4.2449   -0.2932   34.6412 C   0  0  0  0  0  0  0  0  0  0  0  0
    4.2000   -1.5725   33.8172 C   0  0  0  0  0  0  0  0  0  0  0  0
    3.5863   -2.7505   34.5965 C   0  0  0  0  0  0  0  0  0  0  0  0
    3.2544   -3.9369   33.6608 C   0  0  0  0  0  0  0  0  0  0  0  0
    1.9096   -3.8680   32.9967 C   0  0  0  0  0  0  0  0  0  0  0  0
    1.1993   -2.7788   32.6921 C   0  0  0  0  0  0  0  0  0  0  0  0
   -0.0728   -2.9658   32.2028 N   0  0  0  0  0  0  0  0  0  0  0  0
   -0.4152   -2.2834   30.9667 C   0  0  0  0  0  0  0  0  0  0  0  0
   -0.8929   -0.8555   31.1416 C   0  0  0  0  0  0  0  0  0  0  0  0
   -2.2546   -0.7843   31.8600 C   0  0  0  0  0  0  0  0  0  0  0  0
   -2.1346   -0.6595   33.3730 C   0  0  0  0  0  0  0  0  0  0  0  0
   -0.9635   -0.1864   29.7818 C   0  0  0  0  0  0  0  0  0  0  0  0
   -1.5169   -0.8066   28.6574 C   0  0  0  0  0  0  0  0  0  0  0  0
   -1.7475   -0.0741   27.4953 C   0  0  0  0  0  0  0  0  0  0  0  0
   -1.4607    1.2876   27.4357 C   0  0  0  0  0  0  0  0  0  0  0  0
   -1.9744    2.1309   26.3062 C   0  0  0  0  0  0  0  0  0  0  0  0
   -0.8979    2.7914   25.6510 O   0  0  0  0  0  0  0  0  0  0  0  0
   -0.7801    1.8680   28.5039 C   0  0  0  0  0  0  0  0  0  0  0  0
   -0.5114    1.1293   29.6561 C   0  0  0  0  0  0  0  0  0  0  0  0
   -0.7909   -4.1394   32.4604 C   0  0  0  0  0  0  0  0  0  0  0  0
   -1.9728   -4.2484   32.1402 O   0  0  0  0  0  0  0  0  0  0  0  0
    0.0126   -5.3629   32.9112 C   0  0  0  0  0  0  0  0  0  0  0  0
    1.2969   -5.1120   32.5316 C   0  0  0  0  0  0  0  0  0  0  0  0
    1.6314   -5.6264   31.1836 C   0  0  0  0  0  0  0  0  0  0  0  0
    0.8439   -6.5067   30.5372 C   0  0  0  0  0  0  0  0  0  0  0  0
   -0.2390   -7.0991   31.2221 C   0  0  0  0  0  0  0  0  0  0  0  0
   -1.0294   -8.1127   30.9640 N   0  0  0  0  0  0  0  0  0  0  0  0
   -1.7068   -8.3903   32.1280 N   0  0  0  0  0  0  0  0  0  0  0  0
   -1.3425   -7.5225   33.0510 C   0  0  0  0  0  0  0  0  0  0  0  0
   -1.5890   -7.5901   34.3824 N   0  0  0  0  0  0  0  0  0  0  0  0
   -0.5507   -6.5636   32.4572 N   0  0  0  0  0  0  0  0  0  0  0  0
    4.5741   -3.1816   35.6093 N   0  0  0  0  0  0  0  0  0  0  0  0
    4.0498   -3.9357   37.0129 S   0  0  0  0  0  0  0  0  0  0  0  0
    3.7332   -2.5419   38.0738 C   0  0  0  0  0  0  0  0  0  0  0  0
    5.2025   -4.6457   37.5190 O   0  0  0  0  0  0  0  0  0  0  0  0
    2.8064   -4.6138   36.7263 O   0  0  0  0  0  0  0  0  0  0  0  0
    4.8576   -0.4171   35.5394 H   0  0  0  0  0  0  0  0  0  0  0  0
    3.2387    0.0087   34.9492 H   0  0  0  0  0  0  0  0  0  0  0  0
    4.6762    0.5210   34.0502 H   0  0  0  0  0  0  0  0  0  0  0  0
    5.2212   -1.8230   33.5019 H   0  0  0  0  0  0  0  0  0  0  0  0
    3.6427   -1.3658   32.8996 H   0  0  0  0  0  0  0  0  0  0  0  0
    2.6810   -2.4055   35.1116 H   0  0  0  0  0  0  0  0  0  0  0  0
    3.2918   -4.8706   34.2363 H   0  0  0  0  0  0  0  0  0  0  0  0
    4.0329   -4.0405   32.8932 H   0  0  0  0  0  0  0  0  0  0  0  0
    1.5393   -1.7555   32.7780 H   0  0  0  0  0  0  0  0  0  0  0  0
   -1.1584   -2.8799   30.4234 H   0  0  0  0  0  0  0  0  0  0  0  0
    0.4803   -2.3080   30.3270 H   0  0  0  0  0  0  0  0  0  0  0  0
   -0.1496   -0.3120   31.7403 H   0  0  0  0  0  0  0  0  0  0  0  0
   -2.8653   -1.6623   31.6218 H   0  0  0  0  0  0  0  0  0  0  0  0
   -2.8173    0.0818   31.5064 H   0  0  0  0  0  0  0  0  0  0  0  0
   -1.6599   -1.5360   33.8199 H   0  0  0  0  0  0  0  0  0  0  0  0
   -3.1295   -0.5584   33.8188 H   0  0  0  0  0  0  0  0  0  0  0  0
   -1.5529    0.2263   33.6474 H   0  0  0  0  0  0  0  0  0  0  0  0
   -1.8447   -1.8430   28.6624 H   0  0  0  0  0  0  0  0  0  0  0  0
   -2.2340   -0.5632   26.6574 H   0  0  0  0  0  0  0  0  0  0  0  0
   -2.6709    2.8796   26.7013 H   0  0  0  0  0  0  0  0  0  0  0  0
   -2.5097    1.5319   25.5662 H   0  0  0  0  0  0  0  0  0  0  0  0
   -1.2973    3.5682   25.2207 H   0  0  0  0  0  0  0  0  0  0  0  0
   -0.5094    2.9218   28.4636 H   0  0  0  0  0  0  0  0  0  0  0  0
   -0.0128    1.6283   30.4838 H   0  0  0  0  0  0  0  0  0  0  0  0
    2.4757   -5.1755   30.6677 H   0  0  0  0  0  0  0  0  0  0  0  0
    1.0813   -6.8343   29.5384 H   0  0  0  0  0  0  0  0  0  0  0  0
   -1.7218   -8.5650   34.6974 H   0  0  0  0  0  0  0  0  0  0  0  0
   -0.9593   -7.1133   35.0205 H   0  0  0  0  0  0  0  0  0  0  0  0
    5.4815   -3.5241   35.2896 H   0  0  0  0  0  0  0  0  0  0  0  0
    2.9371   -1.9361   37.6377 H   0  0  0  0  0  0  0  0  0  0  0  0
    4.6527   -1.9640   38.1829 H   0  0  0  0  0  0  0  0  0  0  0  0
    3.4174   -2.9255   39.0464 H   0  0  0  0  0  0  0  0  0  0  0  0
  1  2  1  0
  2  3  1  0
  3  4  1  0
  4  5  1  0
  5  6  2  0
  6  7  1  0
  7  8  1  0
  8  9  1  0
  9 10  1  0
 10 11  1  0
  9 12  1  0
 12 13  2  0
 13 14  1  0
 14 15  2  0
 15 16  1  0
 16 17  1  0
 15 18  1  0
 18 19  2  0
  7 20  1  0
 20 21  2  0
 20 22  1  0
 22 23  2  0
 23 24  1  0
 24 25  2  0
 25 26  1  0
 26 27  2  0
 27 28  1  0
 28 29  2  0
 29 30  1  0
 29 31  1  0
  3 32  1  0
 32 33  1  0
 33 34  1  0
 33 35  2  0
 33 36  2  0
 23  5  1  0
 31 26  1  0
 19 12  1  0
 31 22  1  0
  1 37  1  0
  1 38  1  0
  1 39  1  0
  2 40  1  0
  2 41  1  0
  3 42  1  0
  4 43  1  0
  4 44  1  0
  6 45  1  0
  8 46  1  0
  8 47  1  0
  9 48  1  0
 10 49  1  0
 10 50  1  0
 11 51  1  0
 11 52  1  0
 11 53  1  0
 13 54  1  0
 14 55  1  0
 16 56  1  0
 16 57  1  0
 17 58  1  0
 18 59  1  0
 19 60  1  0
 24 61  1  0
 25 62  1  0
 30 63  1  0
 30 64  1  0
 32 65  1  0
 34 66  1  0
 34 67  1  0
 34 68  1  0
M  END
>  <Energy>  (759) 
76.514958823446335

>  <compound_id>  (759) 
3713

>  <target_id>  (759) 
1

>  <reference_id>  (759) 
128

>  <inspiration_ids>  (759) 
[128, 188]

>  <energy_score>  (759) 
-50.71834959396682

>  <distance_score>  (759) 
1.0761939062759267

>  <path>  (759) 
/opt/xchem-fragalysis-2/maxwin/BulkDock/SCRATCH/505734/C3713-P128/C3713-P128.minimised.mol

>  <scratch_subdir>  (759) 
/opt/xchem-fragalysis-2/maxwin/BulkDock/SCRATCH/505734/C3713-P128

>  <fragmenstein_runtime>  (759) 
15.243356466293335

>  <fragmenstein_outcome>  (759) 
too moved

>  <fragmenstein_mode>  (759) 
expansion

>  <fragmenstein_error>  (759) 


$$$$
C3713-P188
     RDKit          3D

 68 71  0  0  0  0  0  0  0  0999 V2000
    4.2846   -0.2923   34.6215 C   0  0  0  0  0  0  0  0  0  0  0  0
    4.2322   -1.5852   33.8192 C   0  0  0  0  0  0  0  0  0  0  0  0
    3.6214   -2.7479   34.6237 C   0  0  0  0  0  0  0  0  0  0  0  0
    3.2653   -3.9445   33.7109 C   0  0  0  0  0  0  0  0  0  0  0  0
    1.9283   -3.8575   33.0342 C   0  0  0  0  0  0  0  0  0  0  0  0
    1.2180   -2.7617   32.7537 C   0  0  0  0  0  0  0  0  0  0  0  0
   -0.0421   -2.9394   32.2315 N   0  0  0  0  0  0  0  0  0  0  0  0
   -0.3352   -2.2557   30.9839 C   0  0  0  0  0  0  0  0  0  0  0  0
   -0.9151   -0.8688   31.1590 C   0  0  0  0  0  0  0  0  0  0  0  0
   -2.3054   -0.8974   31.8194 C   0  0  0  0  0  0  0  0  0  0  0  0
   -2.2593   -0.7316   33.3324 C   0  0  0  0  0  0  0  0  0  0  0  0
   -0.9693   -0.1885   29.8059 C   0  0  0  0  0  0  0  0  0  0  0  0
   -1.4983   -0.8036   28.6670 C   0  0  0  0  0  0  0  0  0  0  0  0
   -1.7187   -0.0590   27.5099 C   0  0  0  0  0  0  0  0  0  0  0  0
   -1.4623    1.3098   27.4799 C   0  0  0  0  0  0  0  0  0  0  0  0
   -2.0042    2.1757   26.3814 C   0  0  0  0  0  0  0  0  0  0  0  0
   -0.9447    2.8314   25.6958 O   0  0  0  0  0  0  0  0  0  0  0  0
   -0.7912    1.8814   28.5580 C   0  0  0  0  0  0  0  0  0  0  0  0
   -0.5258    1.1309   29.7021 C   0  0  0  0  0  0  0  0  0  0  0  0
   -0.7644   -4.1188   32.4491 C   0  0  0  0  0  0  0  0  0  0  0  0
   -1.9356   -4.2313   32.0921 O   0  0  0  0  0  0  0  0  0  0  0  0
    0.0339   -5.3451   32.8997 C   0  0  0  0  0  0  0  0  0  0  0  0
    1.3200   -5.0885   32.5308 C   0  0  0  0  0  0  0  0  0  0  0  0
    1.6478   -5.5579   31.1645 C   0  0  0  0  0  0  0  0  0  0  0  0
    0.8602   -6.4227   30.4960 C   0  0  0  0  0  0  0  0  0  0  0  0
   -0.2141   -7.0432   31.1723 C   0  0  0  0  0  0  0  0  0  0  0  0
   -0.9951   -8.0608   30.8994 N   0  0  0  0  0  0  0  0  0  0  0  0
   -1.6792   -8.3551   32.0572 N   0  0  0  0  0  0  0  0  0  0  0  0
   -1.3236   -7.4978   32.9937 C   0  0  0  0  0  0  0  0  0  0  0  0
   -1.5841   -7.5698   34.3231 N   0  0  0  0  0  0  0  0  0  0  0  0
   -0.5253   -6.5356   32.4191 N   0  0  0  0  0  0  0  0  0  0  0  0
    4.6217   -3.1728   35.6269 N   0  0  0  0  0  0  0  0  0  0  0  0
    4.1128   -3.8940   37.0533 S   0  0  0  0  0  0  0  0  0  0  0  0
    3.8402   -2.4769   38.0952 C   0  0  0  0  0  0  0  0  0  0  0  0
    5.2631   -4.6144   37.5502 O   0  0  0  0  0  0  0  0  0  0  0  0
    2.8526   -4.5552   36.8031 O   0  0  0  0  0  0  0  0  0  0  0  0
    4.9015   -0.4031   35.5187 H   0  0  0  0  0  0  0  0  0  0  0  0
    3.2809    0.0177   34.9294 H   0  0  0  0  0  0  0  0  0  0  0  0
    4.7153    0.5106   34.0149 H   0  0  0  0  0  0  0  0  0  0  0  0
    5.2509   -1.8432   33.5018 H   0  0  0  0  0  0  0  0  0  0  0  0
    3.6702   -1.3927   32.9014 H   0  0  0  0  0  0  0  0  0  0  0  0
    2.7267   -2.3890   35.1478 H   0  0  0  0  0  0  0  0  0  0  0  0
    3.2738   -4.8662   34.3066 H   0  0  0  0  0  0  0  0  0  0  0  0
    4.0475   -4.0828   32.9526 H   0  0  0  0  0  0  0  0  0  0  0  0
    1.5499   -1.7392   32.8756 H   0  0  0  0  0  0  0  0  0  0  0  0
   -0.9980   -2.8878   30.3795 H   0  0  0  0  0  0  0  0  0  0  0  0
    0.6005   -2.2052   30.4063 H   0  0  0  0  0  0  0  0  0  0  0  0
   -0.2345   -0.2907   31.7989 H   0  0  0  0  0  0  0  0  0  0  0  0
   -2.8339   -1.8251   31.5766 H   0  0  0  0  0  0  0  0  0  0  0  0
   -2.9204   -0.0899   31.4215 H   0  0  0  0  0  0  0  0  0  0  0  0
   -1.7170   -1.5468   33.8171 H   0  0  0  0  0  0  0  0  0  0  0  0
   -3.2763   -0.7214   33.7379 H   0  0  0  0  0  0  0  0  0  0  0  0
   -1.7796    0.2134   33.6070 H   0  0  0  0  0  0  0  0  0  0  0  0
   -1.8220   -1.8418   28.6611 H   0  0  0  0  0  0  0  0  0  0  0  0
   -2.1824   -0.5442   26.6575 H   0  0  0  0  0  0  0  0  0  0  0  0
   -2.6764    2.9276   26.8108 H   0  0  0  0  0  0  0  0  0  0  0  0
   -2.5797    1.5971   25.6549 H   0  0  0  0  0  0  0  0  0  0  0  0
   -1.3046    3.6944   25.4235 H   0  0  0  0  0  0  0  0  0  0  0  0
   -0.5363    2.9394   28.5356 H   0  0  0  0  0  0  0  0  0  0  0  0
   -0.0396    1.6212   30.5417 H   0  0  0  0  0  0  0  0  0  0  0  0
    2.4908   -5.0926   30.6588 H   0  0  0  0  0  0  0  0  0  0  0  0
    1.1037   -6.7197   29.4882 H   0  0  0  0  0  0  0  0  0  0  0  0
   -1.7156   -8.5484   34.6312 H   0  0  0  0  0  0  0  0  0  0  0  0
   -0.9526   -7.1045   34.9680 H   0  0  0  0  0  0  0  0  0  0  0  0
    5.5166   -3.5373   35.2960 H   0  0  0  0  0  0  0  0  0  0  0  0
    3.0463   -1.8651   37.6635 H   0  0  0  0  0  0  0  0  0  0  0  0
    4.7713   -1.9131   38.1768 H   0  0  0  0  0  0  0  0  0  0  0  0
    3.5366   -2.8380   39.0802 H   0  0  0  0  0  0  0  0  0  0  0  0
  1  2  1  0
  2  3  1  0
  3  4  1  0
  4  5  1  0
  5  6  2  0
  6  7  1  0
  7  8  1  0
  8  9  1  0
  9 10  1  0
 10 11  1  0
  9 12  1  0
 12 13  2  0
 13 14  1  0
 14 15  2  0
 15 16  1  0
 16 17  1  0
 15 18  1  0
 18 19  2  0
  7 20  1  0
 20 21  2  0
 20 22  1  0
 22 23  2  0
 23 24  1  0
 24 25  2  0
 25 26  1  0
 26 27  2  0
 27 28  1  0
 28 29  2  0
 29 30  1  0
 29 31  1  0
  3 32  1  0
 32 33  1  0
 33 34  1  0
 33 35  2  0
 33 36  2  0
 23  5  1  0
 31 26  1  0
 19 12  1  0
 31 22  1  0
  1 37  1  0
  1 38  1  0
  1 39  1  0
  2 40  1  0
  2 41  1  0
  3 42  1  0
  4 43  1  0
  4 44  1  0
  6 45  1  0
  8 46  1  0
  8 47  1  0
  9 48  1  0
 10 49  1  0
 10 50  1  0
 11 51  1  0
 11 52  1  0
 11 53  1  0
 13 54  1  0
 14 55  1  0
 16 56  1  0
 16 57  1  0
 17 58  1  0
 18 59  1  0
 19 60  1  0
 24 61  1  0
 25 62  1  0
 30 63  1  0
 30 64  1  0
 32 65  1  0
 34 66  1  0
 34 67  1  0
 34 68  1  0
M  END
>  <Energy>  (760) 
79.191578126178896

>  <compound_id>  (760) 
3713

>  <target_id>  (760) 
1

>  <reference_id>  (760) 
188

>  <inspiration_ids>  (760) 
[128, 188]

>  <energy_score>  (760) 
-48.04173029123524

>  <distance_score>  (760) 
1.0842603279498808

>  <path>  (760) 
/opt/xchem-fragalysis-2/maxwin/BulkDock/SCRATCH/505734/C3713-P188/C3713-P188.minimised.mol

>  <scratch_subdir>  (760) 
/opt/xchem-fragalysis-2/maxwin/BulkDock/SCRATCH/505734/C3713-P188

>  <fragmenstein_runtime>  (760) 
15.257243871688843

>  <fragmenstein_outcome>  (760) 
too moved

>  <fragmenstein_mode>  (760) 
expansion

>  <fragmenstein_error>  (760) 


$$$$
C3714-P128
     RDKit          3D

 58 62  0  0  0  0  0  0  0  0999 V2000
    2.0009   -5.3104   37.2916 C   0  0  0  0  0  0  0  0  0  0  0  0
    2.7134   -3.6904   37.1034 S   0  0  0  0  0  0  0  0  0  0  0  0
    1.7020   -2.7876   36.5998 O   0  0  0  0  0  0  0  0  0  0  0  0
    3.4633   -3.3936   38.3050 O   0  0  0  0  0  0  0  0  0  0  0  0
    3.8840   -3.9918   35.9096 N   0  0  0  0  0  0  0  0  0  0  0  0
    3.6387   -3.4420   34.6164 C   0  0  0  0  0  0  0  0  0  0  0  0
    4.2263   -2.2295   34.2562 C   0  0  0  0  0  0  0  0  0  0  0  0
    3.9482   -1.6658   33.0138 C   0  0  0  0  0  0  0  0  0  0  0  0
    3.0534   -2.2936   32.1532 C   0  0  0  0  0  0  0  0  0  0  0  0
    2.3980   -3.4755   32.5392 C   0  0  0  0  0  0  0  0  0  0  0  0
    1.2748   -4.0035   31.6621 C   0  0  0  0  0  0  0  0  0  0  0  0
    1.7405   -5.2797   30.9213 C   0  0  0  0  0  0  0  0  0  0  0  0
    0.5886   -6.1300   30.3982 C   0  0  0  0  0  0  0  0  0  0  0  0
   -0.2779   -6.4492   31.5434 C   0  0  0  0  0  0  0  0  0  0  0  0
   -0.8149   -7.6028   31.8485 N   0  0  0  0  0  0  0  0  0  0  0  0
   -1.2384   -7.5056   33.1435 N   0  0  0  0  0  0  0  0  0  0  0  0
   -0.9890   -6.2906   33.5766 C   0  0  0  0  0  0  0  0  0  0  0  0
   -1.1497   -5.8547   34.8370 N   0  0  0  0  0  0  0  0  0  0  0  0
   -0.4947   -5.5324   32.5562 N   0  0  0  0  0  0  0  0  0  0  0  0
   -0.1382   -4.1226   32.3864 C   0  0  0  0  0  0  0  0  0  0  0  0
   -0.3563   -3.0981   33.5444 C   0  0  0  0  0  0  0  0  0  0  0  0
   -0.3058   -1.6636   32.9377 C   0  0  0  0  0  0  0  0  0  0  0  0
   -1.1871   -1.6294   31.6735 C   0  0  0  0  0  0  0  0  0  0  0  0
   -0.8528   -0.7425   30.4890 C   0  0  0  0  0  0  0  0  0  0  0  0
   -1.4068   -0.9581   29.2072 C   0  0  0  0  0  0  0  0  0  0  0  0
   -1.2039   -0.0829   28.1418 C   0  0  0  0  0  0  0  0  0  0  0  0
   -0.4567    1.0625   28.3366 C   0  0  0  0  0  0  0  0  0  0  0  0
    0.0979    1.3115   29.5891 C   0  0  0  0  0  0  0  0  0  0  0  0
   -0.0999    0.4237   30.6557 C   0  0  0  0  0  0  0  0  0  0  0  0
   -1.3665   -3.3434   31.2235 S   0  0  0  0  0  0  0  0  0  0  0  0
   -0.9556   -3.6269   29.8692 O   0  0  0  0  0  0  0  0  0  0  0  0
   -2.7002   -3.6687   31.6819 O   0  0  0  0  0  0  0  0  0  0  0  0
    2.7329   -4.0708   33.7618 C   0  0  0  0  0  0  0  0  0  0  0  0
    1.2572   -5.2593   38.0899 H   0  0  0  0  0  0  0  0  0  0  0  0
    1.5193   -5.6007   36.3572 H   0  0  0  0  0  0  0  0  0  0  0  0
    2.7885   -6.0155   37.5635 H   0  0  0  0  0  0  0  0  0  0  0  0
    4.8028   -3.7728   36.3025 H   0  0  0  0  0  0  0  0  0  0  0  0
    4.9033   -1.7169   34.9342 H   0  0  0  0  0  0  0  0  0  0  0  0
    4.4197   -0.7297   32.7236 H   0  0  0  0  0  0  0  0  0  0  0  0
    2.8354   -1.8168   31.1974 H   0  0  0  0  0  0  0  0  0  0  0  0
    1.1735   -3.2530   30.8675 H   0  0  0  0  0  0  0  0  0  0  0  0
    2.4170   -5.0146   30.0994 H   0  0  0  0  0  0  0  0  0  0  0  0
    2.3249   -5.8930   31.6159 H   0  0  0  0  0  0  0  0  0  0  0  0
    0.9660   -7.0538   29.9557 H   0  0  0  0  0  0  0  0  0  0  0  0
    0.0380   -5.6270   29.6095 H   0  0  0  0  0  0  0  0  0  0  0  0
   -1.8596   -5.1202   34.9333 H   0  0  0  0  0  0  0  0  0  0  0  0
   -1.4322   -6.6194   35.4512 H   0  0  0  0  0  0  0  0  0  0  0  0
    0.3533   -3.2111   34.3632 H   0  0  0  0  0  0  0  0  0  0  0  0
   -1.3480   -3.2293   33.9927 H   0  0  0  0  0  0  0  0  0  0  0  0
   -0.6675   -0.9343   33.6722 H   0  0  0  0  0  0  0  0  0  0  0  0
    0.7170   -1.3714   32.7091 H   0  0  0  0  0  0  0  0  0  0  0  0
   -2.1875   -1.3105   32.0004 H   0  0  0  0  0  0  0  0  0  0  0  0
   -2.0260   -1.8204   28.9727 H   0  0  0  0  0  0  0  0  0  0  0  0
   -1.6470   -0.2977   27.1713 H   0  0  0  0  0  0  0  0  0  0  0  0
   -0.3125    1.7655   27.5210 H   0  0  0  0  0  0  0  0  0  0  0  0
    0.6735    2.2223   29.7431 H   0  0  0  0  0  0  0  0  0  0  0  0
    0.3256    0.6893   31.6206 H   0  0  0  0  0  0  0  0  0  0  0  0
    2.2542   -4.9948   34.0752 H   0  0  0  0  0  0  0  0  0  0  0  0
  1  2  1  0
  2  3  2  0
  2  4  2  0
  2  5  1  0
  5  6  1  0
  6  7  2  0
  7  8  1  0
  8  9  2  0
  9 10  1  0
 10 11  1  0
 11 12  1  0
 12 13  1  0
 13 14  1  0
 14 15  2  0
 15 16  1  0
 16 17  2  0
 17 18  1  0
 17 19  1  0
 19 20  1  0
 20 21  1  0
 21 22  1  0
 22 23  1  0
 23 24  1  0
 24 25  2  0
 25 26  1  0
 26 27  2  0
 27 28  1  0
 28 29  2  0
 23 30  1  0
 30 31  2  0
 30 32  2  0
 10 33  2  0
 33  6  1  0
 20 11  1  0
 29 24  1  0
 19 14  1  0
 30 20  1  0
  1 34  1  0
  1 35  1  0
  1 36  1  0
  5 37  1  0
  7 38  1  0
  8 39  1  0
  9 40  1  0
 11 41  1  0
 12 42  1  0
 12 43  1  0
 13 44  1  0
 13 45  1  0
 18 46  1  0
 18 47  1  0
 21 48  1  0
 21 49  1  0
 22 50  1  0
 22 51  1  0
 23 52  1  0
 25 53  1  0
 26 54  1  0
 27 55  1  0
 28 56  1  0
 29 57  1  0
 33 58  1  0
M  END
>  <Energy>  (761) 
10.419527031391372

>  <compound_id>  (761) 
3714

>  <target_id>  (761) 
1

>  <reference_id>  (761) 
128

>  <inspiration_ids>  (761) 
[128, 189]

>  <energy_score>  (761) 
-82.6504599717102

>  <distance_score>  (761) 
1.323651538157746

>  <path>  (761) 
/opt/xchem-fragalysis-2/maxwin/BulkDock/SCRATCH/505734/C3714-P128/C3714-P128.minimised.mol

>  <scratch_subdir>  (761) 
/opt/xchem-fragalysis-2/maxwin/BulkDock/SCRATCH/505734/C3714-P128

>  <fragmenstein_runtime>  (761) 
7.31866717338562

>  <fragmenstein_outcome>  (761) 
too moved

>  <fragmenstein_mode>  (761) 
expansion

>  <fragmenstein_error>  (761) 


$$$$
C3714-P189
     RDKit          3D

 58 62  0  0  0  0  0  0  0  0999 V2000
    3.9161   -2.1797   38.0868 C   0  0  0  0  0  0  0  0  0  0  0  0
    2.7947   -3.1632   37.1180 S   0  0  0  0  0  0  0  0  0  0  0  0
    2.4066   -4.3113   37.9078 O   0  0  0  0  0  0  0  0  0  0  0  0
    1.8093   -2.2937   36.5129 O   0  0  0  0  0  0  0  0  0  0  0  0
    3.8529   -3.7734   35.9349 N   0  0  0  0  0  0  0  0  0  0  0  0
    3.6369   -3.3099   34.6041 C   0  0  0  0  0  0  0  0  0  0  0  0
    4.2081   -2.1058   34.1967 C   0  0  0  0  0  0  0  0  0  0  0  0
    3.9294   -1.6002   32.9311 C   0  0  0  0  0  0  0  0  0  0  0  0
    3.0439   -2.2751   32.0969 C   0  0  0  0  0  0  0  0  0  0  0  0
    2.4029   -3.4504   32.5285 C   0  0  0  0  0  0  0  0  0  0  0  0
    1.2828   -4.0164   31.6706 C   0  0  0  0  0  0  0  0  0  0  0  0
    1.7719   -5.2839   30.9298 C   0  0  0  0  0  0  0  0  0  0  0  0
    0.6298   -6.1463   30.4028 C   0  0  0  0  0  0  0  0  0  0  0  0
   -0.2243   -6.4935   31.5505 C   0  0  0  0  0  0  0  0  0  0  0  0
   -0.7293   -7.6620   31.8588 N   0  0  0  0  0  0  0  0  0  0  0  0
   -1.1494   -7.5761   33.1572 N   0  0  0  0  0  0  0  0  0  0  0  0
   -0.9288   -6.3534   33.5873 C   0  0  0  0  0  0  0  0  0  0  0  0
   -1.0913   -5.9112   34.8433 N   0  0  0  0  0  0  0  0  0  0  0  0
   -0.4556   -5.5830   32.5658 N   0  0  0  0  0  0  0  0  0  0  0  0
   -0.1261   -4.1647   32.3993 C   0  0  0  0  0  0  0  0  0  0  0  0
   -0.3624   -3.1420   33.5584 C   0  0  0  0  0  0  0  0  0  0  0  0
   -0.3537   -1.7078   32.9455 C   0  0  0  0  0  0  0  0  0  0  0  0
   -1.3047   -1.7012   31.7373 C   0  0  0  0  0  0  0  0  0  0  0  0
   -1.1134   -0.7930   30.5400 C   0  0  0  0  0  0  0  0  0  0  0  0
   -1.8448   -1.0064   29.3466 C   0  0  0  0  0  0  0  0  0  0  0  0
   -1.7239   -0.1717   28.2375 C   0  0  0  0  0  0  0  0  0  0  0  0
   -0.8984    0.9363   28.3108 C   0  0  0  0  0  0  0  0  0  0  0  0
   -0.1900    1.1909   29.4841 C   0  0  0  0  0  0  0  0  0  0  0  0
   -0.2961    0.3383   30.5910 C   0  0  0  0  0  0  0  0  0  0  0  0
   -1.3774   -3.4119   31.2344 S   0  0  0  0  0  0  0  0  0  0  0  0
   -0.9357   -3.6200   29.8746 O   0  0  0  0  0  0  0  0  0  0  0  0
   -2.6985   -3.8224   31.6553 O   0  0  0  0  0  0  0  0  0  0  0  0
    2.7456   -3.9928   33.7733 C   0  0  0  0  0  0  0  0  0  0  0  0
    3.3584   -1.7671   38.9303 H   0  0  0  0  0  0  0  0  0  0  0  0
    4.7232   -2.8173   38.4524 H   0  0  0  0  0  0  0  0  0  0  0  0
    4.3044   -1.3693   37.4677 H   0  0  0  0  0  0  0  0  0  0  0  0
    3.8872   -4.7903   36.0379 H   0  0  0  0  0  0  0  0  0  0  0  0
    4.8820   -1.5649   34.8548 H   0  0  0  0  0  0  0  0  0  0  0  0
    4.3923   -0.6729   32.6016 H   0  0  0  0  0  0  0  0  0  0  0  0
    2.8215   -1.8399   31.1224 H   0  0  0  0  0  0  0  0  0  0  0  0
    1.1571   -3.2726   30.8737 H   0  0  0  0  0  0  0  0  0  0  0  0
    2.4433   -5.0058   30.1079 H   0  0  0  0  0  0  0  0  0  0  0  0
    2.3674   -5.8883   31.6234 H   0  0  0  0  0  0  0  0  0  0  0  0
    1.0170   -7.0563   29.9406 H   0  0  0  0  0  0  0  0  0  0  0  0
    0.0642   -5.6362   29.6294 H   0  0  0  0  0  0  0  0  0  0  0  0
   -1.8274   -5.2015   34.9391 H   0  0  0  0  0  0  0  0  0  0  0  0
   -1.3266   -6.6603   35.4917 H   0  0  0  0  0  0  0  0  0  0  0  0
    0.3546   -3.2341   34.3740 H   0  0  0  0  0  0  0  0  0  0  0  0
   -1.3481   -3.2973   34.0122 H   0  0  0  0  0  0  0  0  0  0  0  0
   -0.6811   -0.9757   33.6927 H   0  0  0  0  0  0  0  0  0  0  0  0
    0.6516   -1.4111   32.6531 H   0  0  0  0  0  0  0  0  0  0  0  0
   -2.3039   -1.4663   32.1316 H   0  0  0  0  0  0  0  0  0  0  0  0
   -2.5227   -1.8525   29.2319 H   0  0  0  0  0  0  0  0  0  0  0  0
   -2.2737   -0.3939   27.3245 H   0  0  0  0  0  0  0  0  0  0  0  0
   -0.8099    1.6060   27.4599 H   0  0  0  0  0  0  0  0  0  0  0  0
    0.4474    2.0712   29.5383 H   0  0  0  0  0  0  0  0  0  0  0  0
    0.2643    0.5928   31.4870 H   0  0  0  0  0  0  0  0  0  0  0  0
    2.2626   -4.8982   34.1340 H   0  0  0  0  0  0  0  0  0  0  0  0
  1  2  1  0
  2  3  2  0
  2  4  2  0
  2  5  1  0
  5  6  1  0
  6  7  2  0
  7  8  1  0
  8  9  2  0
  9 10  1  0
 10 11  1  0
 11 12  1  0
 12 13  1  0
 13 14  1  0
 14 15  2  0
 15 16  1  0
 16 17  2  0
 17 18  1  0
 17 19  1  0
 19 20  1  0
 20 21  1  0
 21 22  1  0
 22 23  1  0
 23 24  1  0
 24 25  2  0
 25 26  1  0
 26 27  2  0
 27 28  1  0
 28 29  2  0
 23 30  1  0
 30 31  2  0
 30 32  2  0
 10 33  2  0
 33  6  1  0
 20 11  1  0
 29 24  1  0
 19 14  1  0
 30 20  1  0
  1 34  1  0
  1 35  1  0
  1 36  1  0
  5 37  1  0
  7 38  1  0
  8 39  1  0
  9 40  1  0
 11 41  1  0
 12 42  1  0
 12 43  1  0
 13 44  1  0
 13 45  1  0
 18 46  1  0
 18 47  1  0
 21 48  1  0
 21 49  1  0
 22 50  1  0
 22 51  1  0
 23 52  1  0
 25 53  1  0
 26 54  1  0
 27 55  1  0
 28 56  1  0
 29 57  1  0
 33 58  1  0
M  END
>  <Energy>  (762) 
10.33391791639106

>  <compound_id>  (762) 
3714

>  <target_id>  (762) 
1

>  <reference_id>  (762) 
189

>  <inspiration_ids>  (762) 
[128, 189]

>  <energy_score>  (762) 
-82.73606908671013

>  <distance_score>  (762) 
1.2212380763095863

>  <path>  (762) 
/opt/xchem-fragalysis-2/maxwin/BulkDock/SCRATCH/505734/C3714-P189/C3714-P189.minimised.mol

>  <scratch_subdir>  (762) 
/opt/xchem-fragalysis-2/maxwin/BulkDock/SCRATCH/505734/C3714-P189

>  <fragmenstein_runtime>  (762) 
8.09017276763916

>  <fragmenstein_outcome>  (762) 
too moved

>  <fragmenstein_mode>  (762) 
expansion

>  <fragmenstein_error>  (762) 


$$$$
C3714-P128
     RDKit          3D

 58 62  0  0  0  0  0  0  0  0999 V2000
    1.8319   -1.2279   36.6251 C   0  0  0  0  0  0  0  0  0  0  0  0
    3.6117   -1.1511   36.6361 S   0  0  0  0  0  0  0  0  0  0  0  0
    4.0199    0.0814   36.0012 O   0  0  0  0  0  0  0  0  0  0  0  0
    4.0484   -1.4945   37.9723 O   0  0  0  0  0  0  0  0  0  0  0  0
    4.0269   -2.4646   35.6694 N   0  0  0  0  0  0  0  0  0  0  0  0
    3.6847   -2.4785   34.2907 C   0  0  0  0  0  0  0  0  0  0  0  0
    4.1892   -1.5326   33.4097 C   0  0  0  0  0  0  0  0  0  0  0  0
    3.8576   -1.5968   32.0567 C   0  0  0  0  0  0  0  0  0  0  0  0
    3.0015   -2.5910   31.5791 C   0  0  0  0  0  0  0  0  0  0  0  0
    2.4145   -3.4982   32.4612 C   0  0  0  0  0  0  0  0  0  0  0  0
    1.3530   -4.5028   32.0468 C   0  0  0  0  0  0  0  0  0  0  0  0
    1.5125   -5.1919   30.6714 C   0  0  0  0  0  0  0  0  0  0  0  0
    0.4447   -6.2815   30.4174 C   0  0  0  0  0  0  0  0  0  0  0  0
   -0.4486   -6.5084   31.5791 C   0  0  0  0  0  0  0  0  0  0  0  0
   -0.9914   -7.6426   31.9449 N   0  0  0  0  0  0  0  0  0  0  0  0
   -1.3855   -7.4854   33.2446 N   0  0  0  0  0  0  0  0  0  0  0  0
   -1.1218   -6.2537   33.6153 C   0  0  0  0  0  0  0  0  0  0  0  0
   -1.1856   -5.7566   34.8614 N   0  0  0  0  0  0  0  0  0  0  0  0
   -0.7105   -5.5314   32.5358 N   0  0  0  0  0  0  0  0  0  0  0  0
   -0.1600   -4.1789   32.3608 C   0  0  0  0  0  0  0  0  0  0  0  0
   -0.3524   -3.0118   33.3999 C   0  0  0  0  0  0  0  0  0  0  0  0
   -0.2280   -1.5986   32.6815 C   0  0  0  0  0  0  0  0  0  0  0  0
   -0.2588   -1.8170   31.1609 C   0  0  0  0  0  0  0  0  0  0  0  0
   -0.6383   -0.7381   30.1775 C   0  0  0  0  0  0  0  0  0  0  0  0
   -0.0871    0.5396   30.3650 C   0  0  0  0  0  0  0  0  0  0  0  0
   -0.1811    1.5383   29.3901 C   0  0  0  0  0  0  0  0  0  0  0  0
   -0.8443    1.2858   28.1989 C   0  0  0  0  0  0  0  0  0  0  0  0
   -1.3846    0.0272   27.9792 C   0  0  0  0  0  0  0  0  0  0  0  0
   -1.2806   -0.9731   28.9528 C   0  0  0  0  0  0  0  0  0  0  0  0
   -1.1240   -3.3298   31.0410 S   0  0  0  0  0  0  0  0  0  0  0  0
   -2.4698   -3.1338   31.5513 O   0  0  0  0  0  0  0  0  0  0  0  0
   -0.8939   -3.9240   29.7541 O   0  0  0  0  0  0  0  0  0  0  0  0
    2.8133   -3.4594   33.8178 C   0  0  0  0  0  0  0  0  0  0  0  0
    1.4675   -1.0185   35.6183 H   0  0  0  0  0  0  0  0  0  0  0  0
    1.4605   -0.4668   37.3149 H   0  0  0  0  0  0  0  0  0  0  0  0
    1.5163   -2.2169   36.9625 H   0  0  0  0  0  0  0  0  0  0  0  0
    4.0233   -3.3483   36.1781 H   0  0  0  0  0  0  0  0  0  0  0  0
    4.8779   -0.7630   33.7525 H   0  0  0  0  0  0  0  0  0  0  0  0
    4.2904   -0.8754   31.3651 H   0  0  0  0  0  0  0  0  0  0  0  0
    2.7999   -2.6166   30.5093 H   0  0  0  0  0  0  0  0  0  0  0  0
    1.6181   -5.3283   32.7347 H   0  0  0  0  0  0  0  0  0  0  0  0
    1.4984   -4.4626   29.8538 H   0  0  0  0  0  0  0  0  0  0  0  0
    2.5074   -5.6429   30.6079 H   0  0  0  0  0  0  0  0  0  0  0  0
    0.9203   -7.2242   30.1451 H   0  0  0  0  0  0  0  0  0  0  0  0
   -0.1681   -6.0325   29.5566 H   0  0  0  0  0  0  0  0  0  0  0  0
   -1.9170   -5.0423   34.9666 H   0  0  0  0  0  0  0  0  0  0  0  0
   -1.4112   -6.4932   35.5328 H   0  0  0  0  0  0  0  0  0  0  0  0
   -1.3626   -3.0684   33.8274 H   0  0  0  0  0  0  0  0  0  0  0  0
    0.3051   -3.0829   34.2681 H   0  0  0  0  0  0  0  0  0  0  0  0
    0.6907   -1.0884   32.9882 H   0  0  0  0  0  0  0  0  0  0  0  0
   -1.0636   -0.9665   33.0060 H   0  0  0  0  0  0  0  0  0  0  0  0
    0.7405   -2.0775   30.8245 H   0  0  0  0  0  0  0  0  0  0  0  0
    0.4756    0.7728   31.2678 H   0  0  0  0  0  0  0  0  0  0  0  0
    0.2615    2.5171   29.5629 H   0  0  0  0  0  0  0  0  0  0  0  0
   -0.9348    2.0603   27.4426 H   0  0  0  0  0  0  0  0  0  0  0  0
   -1.8803   -0.1963   27.0358 H   0  0  0  0  0  0  0  0  0  0  0  0
   -1.6902   -1.9435   28.6772 H   0  0  0  0  0  0  0  0  0  0  0  0
    2.4131   -4.1895   34.5206 H   0  0  0  0  0  0  0  0  0  0  0  0
  1  2  1  0
  2  3  2  0
  2  4  2  0
  2  5  1  0
  5  6  1  0
  6  7  2  0
  7  8  1  0
  8  9  2  0
  9 10  1  0
 10 11  1  0
 11 12  1  0
 12 13  1  0
 13 14  1  0
 14 15  2  0
 15 16  1  0
 16 17  2  0
 17 18  1  0
 17 19  1  0
 19 20  1  0
 20 21  1  0
 21 22  1  0
 22 23  1  0
 23 24  1  0
 24 25  2  0
 25 26  1  0
 26 27  2  0
 27 28  1  0
 28 29  2  0
 23 30  1  0
 30 31  2  0
 30 32  2  0
 10 33  2  0
 33  6  1  0
 20 11  1  0
 29 24  1  0
 19 14  1  0
 30 20  1  0
  1 34  1  0
  1 35  1  0
  1 36  1  0
  5 37  1  0
  7 38  1  0
  8 39  1  0
  9 40  1  0
 11 41  1  0
 12 42  1  0
 12 43  1  0
 13 44  1  0
 13 45  1  0
 18 46  1  0
 18 47  1  0
 21 48  1  0
 21 49  1  0
 22 50  1  0
 22 51  1  0
 23 52  1  0
 25 53  1  0
 26 54  1  0
 27 55  1  0
 28 56  1  0
 29 57  1  0
 33 58  1  0
M  END
>  <Energy>  (763) 
35.100754160630103

>  <compound_id>  (763) 
3714

>  <target_id>  (763) 
1

>  <reference_id>  (763) 
128

>  <inspiration_ids>  (763) 
[128, 190]

>  <energy_score>  (763) 
-49.283562270505

>  <distance_score>  (763) 
1.7120448622530104

>  <path>  (763) 
/opt/xchem-fragalysis-2/maxwin/BulkDock/SCRATCH/505734/C3714-P128/C3714-P128.minimised.mol

>  <scratch_subdir>  (763) 
/opt/xchem-fragalysis-2/maxwin/BulkDock/SCRATCH/505734/C3714-P128

>  <fragmenstein_runtime>  (763) 
8.775330305099487

>  <fragmenstein_outcome>  (763) 
too moved

>  <fragmenstein_mode>  (763) 
expansion

>  <fragmenstein_error>  (763) 


$$$$
C3714-P190
     RDKit          3D

 58 62  0  0  0  0  0  0  0  0999 V2000
    2.3513   -2.8489   37.6891 C   0  0  0  0  0  0  0  0  0  0  0  0
    2.7494   -1.5379   36.5553 S   0  0  0  0  0  0  0  0  0  0  0  0
    1.5810   -1.2591   35.7491 O   0  0  0  0  0  0  0  0  0  0  0  0
    3.4326   -0.4981   37.2929 O   0  0  0  0  0  0  0  0  0  0  0  0
    3.9495   -2.2971   35.6205 N   0  0  0  0  0  0  0  0  0  0  0  0
    3.6798   -2.4253   34.2259 C   0  0  0  0  0  0  0  0  0  0  0  0
    4.1695   -1.4805   33.3345 C   0  0  0  0  0  0  0  0  0  0  0  0
    3.8626   -1.5909   31.9789 C   0  0  0  0  0  0  0  0  0  0  0  0
    3.0352   -2.6176   31.5155 C   0  0  0  0  0  0  0  0  0  0  0  0
    2.4544   -3.5152   32.4124 C   0  0  0  0  0  0  0  0  0  0  0  0
    1.4073   -4.5407   32.0154 C   0  0  0  0  0  0  0  0  0  0  0  0
    1.5726   -5.2387   30.6419 C   0  0  0  0  0  0  0  0  0  0  0  0
    0.5023   -6.3256   30.3762 C   0  0  0  0  0  0  0  0  0  0  0  0
   -0.3777   -6.5700   31.5465 C   0  0  0  0  0  0  0  0  0  0  0  0
   -0.8946   -7.7155   31.9190 N   0  0  0  0  0  0  0  0  0  0  0  0
   -1.2662   -7.5721   33.2276 N   0  0  0  0  0  0  0  0  0  0  0  0
   -1.0156   -6.3367   33.5976 C   0  0  0  0  0  0  0  0  0  0  0  0
   -1.0684   -5.8457   34.8462 N   0  0  0  0  0  0  0  0  0  0  0  0
   -0.6407   -5.5999   32.5113 N   0  0  0  0  0  0  0  0  0  0  0  0
   -0.1074   -4.2365   32.3384 C   0  0  0  0  0  0  0  0  0  0  0  0
   -0.3214   -3.0847   33.3884 C   0  0  0  0  0  0  0  0  0  0  0  0
   -0.2156   -1.6605   32.6933 C   0  0  0  0  0  0  0  0  0  0  0  0
   -0.2472   -1.8543   31.1710 C   0  0  0  0  0  0  0  0  0  0  0  0
   -0.6613   -0.7684   30.2085 C   0  0  0  0  0  0  0  0  0  0  0  0
   -0.1549    0.5228   30.4260 C   0  0  0  0  0  0  0  0  0  0  0  0
   -0.2677    1.5334   29.4668 C   0  0  0  0  0  0  0  0  0  0  0  0
   -0.9105    1.2815   28.2642 C   0  0  0  0  0  0  0  0  0  0  0  0
   -1.4133    0.0120   28.0188 C   0  0  0  0  0  0  0  0  0  0  0  0
   -1.2896   -1.0010   28.9760 C   0  0  0  0  0  0  0  0  0  0  0  0
   -1.0773   -3.3852   31.0251 S   0  0  0  0  0  0  0  0  0  0  0  0
   -2.4325   -3.2271   31.5232 O   0  0  0  0  0  0  0  0  0  0  0  0
   -0.8299   -3.9566   29.7297 O   0  0  0  0  0  0  0  0  0  0  0  0
    2.8341   -3.4347   33.7706 C   0  0  0  0  0  0  0  0  0  0  0  0
    1.9389   -3.6898   37.1285 H   0  0  0  0  0  0  0  0  0  0  0  0
    1.6057   -2.4709   38.3921 H   0  0  0  0  0  0  0  0  0  0  0  0
    3.2548   -3.1401   38.2278 H   0  0  0  0  0  0  0  0  0  0  0  0
    4.8447   -1.8490   35.8342 H   0  0  0  0  0  0  0  0  0  0  0  0
    4.7973   -0.6614   33.6744 H   0  0  0  0  0  0  0  0  0  0  0  0
    4.2729   -0.8695   31.2739 H   0  0  0  0  0  0  0  0  0  0  0  0
    2.8362   -2.6668   30.4462 H   0  0  0  0  0  0  0  0  0  0  0  0
    1.6891   -5.3563   32.7085 H   0  0  0  0  0  0  0  0  0  0  0  0
    1.5683   -4.5135   29.8206 H   0  0  0  0  0  0  0  0  0  0  0  0
    2.5683   -5.6944   30.5928 H   0  0  0  0  0  0  0  0  0  0  0  0
    0.9784   -7.2625   30.0816 H   0  0  0  0  0  0  0  0  0  0  0  0
   -0.1178   -6.0681   29.5212 H   0  0  0  0  0  0  0  0  0  0  0  0
   -1.7576   -5.0891   34.9480 H   0  0  0  0  0  0  0  0  0  0  0  0
   -1.3197   -6.5602   35.5273 H   0  0  0  0  0  0  0  0  0  0  0  0
    0.3275   -3.1642   34.2609 H   0  0  0  0  0  0  0  0  0  0  0  0
   -1.3336   -3.1581   33.8071 H   0  0  0  0  0  0  0  0  0  0  0  0
    0.6981   -1.1439   33.0026 H   0  0  0  0  0  0  0  0  0  0  0  0
   -1.0572   -1.0433   33.0306 H   0  0  0  0  0  0  0  0  0  0  0  0
    0.7581   -2.0824   30.8272 H   0  0  0  0  0  0  0  0  0  0  0  0
    0.3911    0.7548   31.3397 H   0  0  0  0  0  0  0  0  0  0  0  0
    0.1505    2.5192   29.6580 H   0  0  0  0  0  0  0  0  0  0  0  0
   -1.0128    2.0654   27.5192 H   0  0  0  0  0  0  0  0  0  0  0  0
   -1.8927   -0.2107   27.0674 H   0  0  0  0  0  0  0  0  0  0  0  0
   -1.6712   -1.9774   28.6825 H   0  0  0  0  0  0  0  0  0  0  0  0
    2.4360   -4.1439   34.4946 H   0  0  0  0  0  0  0  0  0  0  0  0
  1  2  1  0
  2  3  2  0
  2  4  2  0
  2  5  1  0
  5  6  1  0
  6  7  2  0
  7  8  1  0
  8  9  2  0
  9 10  1  0
 10 11  1  0
 11 12  1  0
 12 13  1  0
 13 14  1  0
 14 15  2  0
 15 16  1  0
 16 17  2  0
 17 18  1  0
 17 19  1  0
 19 20  1  0
 20 21  1  0
 21 22  1  0
 22 23  1  0
 23 24  1  0
 24 25  2  0
 25 26  1  0
 26 27  2  0
 27 28  1  0
 28 29  2  0
 23 30  1  0
 30 31  2  0
 30 32  2  0
 10 33  2  0
 33  6  1  0
 20 11  1  0
 29 24  1  0
 19 14  1  0
 30 20  1  0
  1 34  1  0
  1 35  1  0
  1 36  1  0
  5 37  1  0
  7 38  1  0
  8 39  1  0
  9 40  1  0
 11 41  1  0
 12 42  1  0
 12 43  1  0
 13 44  1  0
 13 45  1  0
 18 46  1  0
 18 47  1  0
 21 48  1  0
 21 49  1  0
 22 50  1  0
 22 51  1  0
 23 52  1  0
 25 53  1  0
 26 54  1  0
 27 55  1  0
 28 56  1  0
 29 57  1  0
 33 58  1  0
M  END
>  <Energy>  (764) 
30.468651122445635

>  <compound_id>  (764) 
3714

>  <target_id>  (764) 
1

>  <reference_id>  (764) 
190

>  <inspiration_ids>  (764) 
[128, 190]

>  <energy_score>  (764) 
-53.91566530868849

>  <distance_score>  (764) 
1.7218756807989792

>  <path>  (764) 
/opt/xchem-fragalysis-2/maxwin/BulkDock/SCRATCH/505734/C3714-P190/C3714-P190.minimised.mol

>  <scratch_subdir>  (764) 
/opt/xchem-fragalysis-2/maxwin/BulkDock/SCRATCH/505734/C3714-P190

>  <fragmenstein_runtime>  (764) 
8.92447543144226

>  <fragmenstein_outcome>  (764) 
too moved

>  <fragmenstein_mode>  (764) 
expansion

>  <fragmenstein_error>  (764) 


$$$$
C3715-P128
     RDKit          3D

 55 59  0  0  0  0  0  0  0  0999 V2000
    4.8565   -1.8192   37.9438 C   0  0  0  0  0  0  0  0  0  0  0  0
    3.3359   -2.7134   37.7121 S   0  0  0  0  0  0  0  0  0  0  0  0
    3.6291   -4.0274   37.1843 O   0  0  0  0  0  0  0  0  0  0  0  0
    2.5402   -2.5460   38.9097 O   0  0  0  0  0  0  0  0  0  0  0  0
    2.5711   -1.7653   36.5323 N   0  0  0  0  0  0  0  0  0  0  0  0
    2.6914   -2.2072   35.1819 C   0  0  0  0  0  0  0  0  0  0  0  0
    3.7314   -1.7170   34.3981 C   0  0  0  0  0  0  0  0  0  0  0  0
    3.8957   -2.1934   33.1032 C   0  0  0  0  0  0  0  0  0  0  0  0
    3.0326   -3.1722   32.6112 C   0  0  0  0  0  0  0  0  0  0  0  0
    1.9552   -3.6483   33.3796 C   0  0  0  0  0  0  0  0  0  0  0  0
    0.9924   -4.6042   32.7795 C   0  0  0  0  0  0  0  0  0  0  0  0
    0.5077   -5.6408   33.4977 C   0  0  0  0  0  0  0  0  0  0  0  0
   -0.3147   -6.5794   32.8756 N   0  0  0  0  0  0  0  0  0  0  0  0
   -1.0640   -7.6232   33.3747 C   0  0  0  0  0  0  0  0  0  0  0  0
   -1.2326   -7.8547   34.6979 N   0  0  0  0  0  0  0  0  0  0  0  0
   -1.5766   -8.3022   32.3692 N   0  0  0  0  0  0  0  0  0  0  0  0
   -1.2486   -7.6706   31.1933 N   0  0  0  0  0  0  0  0  0  0  0  0
   -0.5425   -6.6088   31.5104 C   0  0  0  0  0  0  0  0  0  0  0  0
   -0.1248   -5.4816   30.7673 C   0  0  0  0  0  0  0  0  0  0  0  0
    0.4759   -4.4531   31.4005 C   0  0  0  0  0  0  0  0  0  0  0  0
    0.4585   -3.1919   30.8352 N   0  0  0  0  0  0  0  0  0  0  0  0
   -0.7329   -2.3284   31.0236 C   0  0  0  0  0  0  0  0  0  0  0  0
   -0.9601   -1.3524   29.9175 C   0  0  0  0  0  0  0  0  0  0  0  0
   -1.4548   -1.7516   28.7467 N   0  0  0  0  0  0  0  0  0  0  0  0
   -1.3408   -0.6462   28.0048 N   0  0  0  0  0  0  0  0  0  0  0  0
   -0.8718    0.4068   28.7490 C   0  0  0  0  0  0  0  0  0  0  0  0
   -0.6877    1.7538   28.2209 C   0  0  0  0  0  0  0  0  0  0  0  0
   -1.5350    2.2748   27.2321 C   0  0  0  0  0  0  0  0  0  0  0  0
   -1.3600    3.5792   26.7656 C   0  0  0  0  0  0  0  0  0  0  0  0
   -0.3361    4.3729   27.2771 C   0  0  0  0  0  0  0  0  0  0  0  0
    0.5124    3.8669   28.2589 C   0  0  0  0  0  0  0  0  0  0  0  0
    0.3349    2.5648   28.7308 C   0  0  0  0  0  0  0  0  0  0  0  0
   -0.5945   -0.0307   29.9687 N   0  0  0  0  0  0  0  0  0  0  0  0
    1.8027   -3.1609   34.6801 C   0  0  0  0  0  0  0  0  0  0  0  0
    4.6246   -0.7874   38.2139 H   0  0  0  0  0  0  0  0  0  0  0  0
    5.4069   -2.2995   38.7558 H   0  0  0  0  0  0  0  0  0  0  0  0
    5.4426   -1.8644   37.0248 H   0  0  0  0  0  0  0  0  0  0  0  0
    1.6160   -1.5707   36.8415 H   0  0  0  0  0  0  0  0  0  0  0  0
    4.4132   -0.9669   34.7872 H   0  0  0  0  0  0  0  0  0  0  0  0
    4.7096   -1.8240   32.4841 H   0  0  0  0  0  0  0  0  0  0  0  0
    3.2081   -3.5578   31.6070 H   0  0  0  0  0  0  0  0  0  0  0  0
    0.7401   -5.8165   34.5396 H   0  0  0  0  0  0  0  0  0  0  0  0
   -0.5106   -7.5803   35.3537 H   0  0  0  0  0  0  0  0  0  0  0  0
   -1.4810   -8.8416   34.8936 H   0  0  0  0  0  0  0  0  0  0  0  0
   -0.4791   -5.3623   29.7497 H   0  0  0  0  0  0  0  0  0  0  0  0
    1.2614   -2.6227   31.0835 H   0  0  0  0  0  0  0  0  0  0  0  0
   -0.6229   -1.7832   31.9691 H   0  0  0  0  0  0  0  0  0  0  0  0
   -1.6337   -2.9488   31.1239 H   0  0  0  0  0  0  0  0  0  0  0  0
   -1.5691   -0.6945   27.0144 H   0  0  0  0  0  0  0  0  0  0  0  0
   -2.3750    1.7013   26.8472 H   0  0  0  0  0  0  0  0  0  0  0  0
   -2.0506    3.9923   26.0328 H   0  0  0  0  0  0  0  0  0  0  0  0
   -0.2233    5.3974   26.9318 H   0  0  0  0  0  0  0  0  0  0  0  0
    1.2945    4.4950   28.6761 H   0  0  0  0  0  0  0  0  0  0  0  0
    0.9905    2.1872   29.5123 H   0  0  0  0  0  0  0  0  0  0  0  0
    0.9881   -3.5116   35.3081 H   0  0  0  0  0  0  0  0  0  0  0  0
  1  2  1  0
  2  3  2  0
  2  4  2  0
  2  5  1  0
  5  6  1  0
  6  7  2  0
  7  8  1  0
  8  9  2  0
  9 10  1  0
 10 11  1  0
 11 12  2  0
 12 13  1  0
 13 14  1  0
 14 15  1  0
 14 16  2  0
 16 17  1  0
 17 18  2  0
 18 19  1  0
 19 20  2  0
 20 21  1  0
 21 22  1  0
 22 23  1  0
 23 24  2  0
 24 25  1  0
 25 26  1  0
 26 27  1  0
 27 28  2  0
 28 29  1  0
 29 30  2  0
 30 31  1  0
 31 32  2  0
 26 33  2  0
 10 34  2  0
 34  6  1  0
 20 11  1  0
 33 23  1  0
 18 13  1  0
 32 27  1  0
  1 35  1  0
  1 36  1  0
  1 37  1  0
  5 38  1  0
  7 39  1  0
  8 40  1  0
  9 41  1  0
 12 42  1  0
 15 43  1  0
 15 44  1  0
 19 45  1  0
 21 46  1  0
 22 47  1  0
 22 48  1  0
 25 49  1  0
 28 50  1  0
 29 51  1  0
 30 52  1  0
 31 53  1  0
 32 54  1  0
 34 55  1  0
M  END
>  <Energy>  (765) 
71.081524450965375

>  <compound_id>  (765) 
3715

>  <target_id>  (765) 
1

>  <reference_id>  (765) 
128

>  <inspiration_ids>  (765) 
[128, 194]

>  <energy_score>  (765) 
-62.465728546914164

>  <distance_score>  (765) 
0.8703276941426855

>  <path>  (765) 
/opt/xchem-fragalysis-2/maxwin/BulkDock/SCRATCH/505734/C3715-P128/C3715-P128.minimised.mol

>  <scratch_subdir>  (765) 
/opt/xchem-fragalysis-2/maxwin/BulkDock/SCRATCH/505734/C3715-P128

>  <fragmenstein_runtime>  (765) 
3.6526975631713867

>  <fragmenstein_outcome>  (765) 
acceptable

>  <fragmenstein_mode>  (765) 
expansion

>  <fragmenstein_error>  (765) 


$$$$
C3715-P194
     RDKit          3D

 55 59  0  0  0  0  0  0  0  0999 V2000
    4.8677   -2.1087   37.9194 C   0  0  0  0  0  0  0  0  0  0  0  0
    3.2573   -2.8269   37.6809 S   0  0  0  0  0  0  0  0  0  0  0  0
    3.4007   -4.1582   37.1338 O   0  0  0  0  0  0  0  0  0  0  0  0
    2.4843   -2.5891   38.8811 O   0  0  0  0  0  0  0  0  0  0  0  0
    2.5999   -1.7856   36.5147 N   0  0  0  0  0  0  0  0  0  0  0  0
    2.7068   -2.1996   35.1551 C   0  0  0  0  0  0  0  0  0  0  0  0
    3.7399   -1.6909   34.3746 C   0  0  0  0  0  0  0  0  0  0  0  0
    3.8892   -2.1321   33.0654 C   0  0  0  0  0  0  0  0  0  0  0  0
    3.0193   -3.0960   32.5557 C   0  0  0  0  0  0  0  0  0  0  0  0
    1.9500   -3.5914   33.3226 C   0  0  0  0  0  0  0  0  0  0  0  0
    0.9920   -4.5468   32.7156 C   0  0  0  0  0  0  0  0  0  0  0  0
    0.5133   -5.5890   33.4283 C   0  0  0  0  0  0  0  0  0  0  0  0
   -0.2994   -6.5290   32.7989 N   0  0  0  0  0  0  0  0  0  0  0  0
   -1.0469   -7.5737   33.2923 C   0  0  0  0  0  0  0  0  0  0  0  0
   -1.2368   -7.7979   34.6131 N   0  0  0  0  0  0  0  0  0  0  0  0
   -1.5389   -8.2662   32.2864 N   0  0  0  0  0  0  0  0  0  0  0  0
   -1.2068   -7.6343   31.1120 N   0  0  0  0  0  0  0  0  0  0  0  0
   -0.5181   -6.5617   31.4327 C   0  0  0  0  0  0  0  0  0  0  0  0
   -0.1127   -5.4263   30.6962 C   0  0  0  0  0  0  0  0  0  0  0  0
    0.4738   -4.3946   31.3381 C   0  0  0  0  0  0  0  0  0  0  0  0
    0.4180   -3.1266   30.7916 N   0  0  0  0  0  0  0  0  0  0  0  0
   -0.7784   -2.2860   31.0489 C   0  0  0  0  0  0  0  0  0  0  0  0
   -1.0881   -1.3160   29.9583 C   0  0  0  0  0  0  0  0  0  0  0  0
   -1.7074   -1.7073   28.8442 N   0  0  0  0  0  0  0  0  0  0  0  0
   -1.5716   -0.6290   28.0642 N   0  0  0  0  0  0  0  0  0  0  0  0
   -1.0268    0.4225   28.7578 C   0  0  0  0  0  0  0  0  0  0  0  0
   -0.8542    1.7605   28.2030 C   0  0  0  0  0  0  0  0  0  0  0  0
   -1.7456    2.2802   27.2525 C   0  0  0  0  0  0  0  0  0  0  0  0
   -1.5793    3.5762   26.7594 C   0  0  0  0  0  0  0  0  0  0  0  0
   -0.5210    4.3635   27.2071 C   0  0  0  0  0  0  0  0  0  0  0  0
    0.3699    3.8598   28.1520 C   0  0  0  0  0  0  0  0  0  0  0  0
    0.2014    2.5662   28.6501 C   0  0  0  0  0  0  0  0  0  0  0  0
   -0.6719   -0.0082   29.9588 N   0  0  0  0  0  0  0  0  0  0  0  0
    1.8077   -3.1328   34.6348 C   0  0  0  0  0  0  0  0  0  0  0  0
    4.7511   -1.0628   38.2089 H   0  0  0  0  0  0  0  0  0  0  0  0
    5.3657   -2.6611   38.7193 H   0  0  0  0  0  0  0  0  0  0  0  0
    5.4407   -2.2009   36.9955 H   0  0  0  0  0  0  0  0  0  0  0  0
    1.6607   -1.5131   36.8137 H   0  0  0  0  0  0  0  0  0  0  0  0
    4.4284   -0.9545   34.7786 H   0  0  0  0  0  0  0  0  0  0  0  0
    4.6983   -1.7482   32.4487 H   0  0  0  0  0  0  0  0  0  0  0  0
    3.1868   -3.4571   31.5412 H   0  0  0  0  0  0  0  0  0  0  0  0
    0.7459   -5.7667   34.4698 H   0  0  0  0  0  0  0  0  0  0  0  0
   -0.5452   -7.4815   35.2834 H   0  0  0  0  0  0  0  0  0  0  0  0
   -1.4916   -8.7791   34.7924 H   0  0  0  0  0  0  0  0  0  0  0  0
   -0.4740   -5.3012   29.6820 H   0  0  0  0  0  0  0  0  0  0  0  0
    1.2223   -2.5503   31.0208 H   0  0  0  0  0  0  0  0  0  0  0  0
   -0.6246   -1.7374   31.9863 H   0  0  0  0  0  0  0  0  0  0  0  0
   -1.6592   -2.9241   31.2020 H   0  0  0  0  0  0  0  0  0  0  0  0
   -1.8556   -0.6859   27.0898 H   0  0  0  0  0  0  0  0  0  0  0  0
   -2.6109    1.7119   26.9191 H   0  0  0  0  0  0  0  0  0  0  0  0
   -2.2997    3.9876   26.0550 H   0  0  0  0  0  0  0  0  0  0  0  0
   -0.4109    5.3807   26.8397 H   0  0  0  0  0  0  0  0  0  0  0  0
    1.1820    4.4820   28.5184 H   0  0  0  0  0  0  0  0  0  0  0  0
    0.8925    2.1902   29.4014 H   0  0  0  0  0  0  0  0  0  0  0  0
    0.9978   -3.4954   35.2622 H   0  0  0  0  0  0  0  0  0  0  0  0
  1  2  1  0
  2  3  2  0
  2  4  2  0
  2  5  1  0
  5  6  1  0
  6  7  2  0
  7  8  1  0
  8  9  2  0
  9 10  1  0
 10 11  1  0
 11 12  2  0
 12 13  1  0
 13 14  1  0
 14 15  1  0
 14 16  2  0
 16 17  1  0
 17 18  2  0
 18 19  1  0
 19 20  2  0
 20 21  1  0
 21 22  1  0
 22 23  1  0
 23 24  2  0
 24 25  1  0
 25 26  1  0
 26 27  1  0
 27 28  2  0
 28 29  1  0
 29 30  2  0
 30 31  1  0
 31 32  2  0
 26 33  2  0
 10 34  2  0
 34  6  1  0
 20 11  1  0
 33 23  1  0
 18 13  1  0
 32 27  1  0
  1 35  1  0
  1 36  1  0
  1 37  1  0
  5 38  1  0
  7 39  1  0
  8 40  1  0
  9 41  1  0
 12 42  1  0
 15 43  1  0
 15 44  1  0
 19 45  1  0
 21 46  1  0
 22 47  1  0
 22 48  1  0
 25 49  1  0
 28 50  1  0
 29 51  1  0
 30 52  1  0
 31 53  1  0
 32 54  1  0
 34 55  1  0
M  END
>  <Energy>  (766) 
71.679596743384309

>  <compound_id>  (766) 
3715

>  <target_id>  (766) 
1

>  <reference_id>  (766) 
194

>  <inspiration_ids>  (766) 
[128, 194]

>  <energy_score>  (766) 
-61.867656254493795

>  <distance_score>  (766) 
0.8586634175289635

>  <path>  (766) 
/opt/xchem-fragalysis-2/maxwin/BulkDock/SCRATCH/505734/C3715-P194/C3715-P194.minimised.mol

>  <scratch_subdir>  (766) 
/opt/xchem-fragalysis-2/maxwin/BulkDock/SCRATCH/505734/C3715-P194

>  <fragmenstein_runtime>  (766) 
3.709082841873169

>  <fragmenstein_outcome>  (766) 
acceptable

>  <fragmenstein_mode>  (766) 
expansion

>  <fragmenstein_error>  (766) 


$$$$
C3716-P128
     RDKit          3D

 48 52  0  0  0  0  0  0  0  0999 V2000
    1.7594   -3.5146   37.2723 C   0  0  0  0  0  0  0  0  0  0  0  0
    2.2962   -1.9140   36.7103 S   0  0  0  0  0  0  0  0  0  0  0  0
    2.9996   -1.2784   37.8043 O   0  0  0  0  0  0  0  0  0  0  0  0
    1.1982   -1.2598   36.0356 O   0  0  0  0  0  0  0  0  0  0  0  0
    3.5038   -2.3477   35.5976 N   0  0  0  0  0  0  0  0  0  0  0  0
    3.1752   -2.2199   34.2156 C   0  0  0  0  0  0  0  0  0  0  0  0
    3.5224   -1.0639   33.5220 C   0  0  0  0  0  0  0  0  0  0  0  0
    3.1405   -0.9122   32.1866 C   0  0  0  0  0  0  0  0  0  0  0  0
    2.3974   -1.9046   31.5453 C   0  0  0  0  0  0  0  0  0  0  0  0
    2.0139   -3.0441   32.2493 C   0  0  0  0  0  0  0  0  0  0  0  0
    1.1973   -4.1078   31.6373 C   0  0  0  0  0  0  0  0  0  0  0  0
    1.7240   -4.9881   30.5975 C   0  0  0  0  0  0  0  0  0  0  0  0
    1.0634   -6.0895   30.2032 C   0  0  0  0  0  0  0  0  0  0  0  0
   -0.0608   -6.5272   30.9385 C   0  0  0  0  0  0  0  0  0  0  0  0
   -0.7534   -7.6442   30.9347 N   0  0  0  0  0  0  0  0  0  0  0  0
   -1.4635   -7.6742   32.1089 N   0  0  0  0  0  0  0  0  0  0  0  0
   -1.2237   -6.5543   32.7595 C   0  0  0  0  0  0  0  0  0  0  0  0
   -1.4207   -6.3330   34.0788 N   0  0  0  0  0  0  0  0  0  0  0  0
   -0.5394   -5.6749   31.9243 N   0  0  0  0  0  0  0  0  0  0  0  0
   -0.0556   -4.3595   32.0982 C   0  0  0  0  0  0  0  0  0  0  0  0
   -1.0859   -3.0746   32.7167 S   0  0  0  0  0  0  0  0  0  0  0  0
   -1.1441   -2.0987   31.2422 C   0  0  0  0  0  0  0  0  0  0  0  0
   -1.6178   -2.5430   30.0975 N   0  0  0  0  0  0  0  0  0  0  0  0
   -1.4399   -1.5353   29.1743 N   0  0  0  0  0  0  0  0  0  0  0  0
   -0.8561   -0.5363   29.8022 C   0  0  0  0  0  0  0  0  0  0  0  0
   -0.4389    0.6506   29.1418 C   0  0  0  0  0  0  0  0  0  0  0  0
    0.3019    1.7233   29.5927 C   0  0  0  0  0  0  0  0  0  0  0  0
    0.3954    2.6518   28.5262 C   0  0  0  0  0  0  0  0  0  0  0  0
   -0.2691    2.1095   27.4488 C   0  0  0  0  0  0  0  0  0  0  0  0
   -0.7551    0.8833   27.8229 N   0  0  0  0  0  0  0  0  0  0  0  0
   -0.6672   -0.8115   31.1385 O   0  0  0  0  0  0  0  0  0  0  0  0
    2.4221   -3.2062   33.5867 C   0  0  0  0  0  0  0  0  0  0  0  0
    2.6199   -4.0622   37.6609 H   0  0  0  0  0  0  0  0  0  0  0  0
    1.2931   -4.0491   36.4435 H   0  0  0  0  0  0  0  0  0  0  0  0
    1.0281   -3.3616   38.0691 H   0  0  0  0  0  0  0  0  0  0  0  0
    4.3727   -1.8864   35.8773 H   0  0  0  0  0  0  0  0  0  0  0  0
    4.0753   -0.2658   34.0100 H   0  0  0  0  0  0  0  0  0  0  0  0
    3.4129   -0.0081   31.6457 H   0  0  0  0  0  0  0  0  0  0  0  0
    2.1031   -1.7639   30.5073 H   0  0  0  0  0  0  0  0  0  0  0  0
    2.6278   -4.6774   30.0799 H   0  0  0  0  0  0  0  0  0  0  0  0
    1.4358   -6.7002   29.3940 H   0  0  0  0  0  0  0  0  0  0  0  0
   -1.8148   -5.4282   34.3520 H   0  0  0  0  0  0  0  0  0  0  0  0
   -1.8769   -7.1045   34.5616 H   0  0  0  0  0  0  0  0  0  0  0  0
    0.7062    1.8447   30.5894 H   0  0  0  0  0  0  0  0  0  0  0  0
    0.8755    3.6222   28.5478 H   0  0  0  0  0  0  0  0  0  0  0  0
   -0.4544    2.4973   26.4561 H   0  0  0  0  0  0  0  0  0  0  0  0
   -1.2839    0.2435   27.2359 H   0  0  0  0  0  0  0  0  0  0  0  0
    2.1414   -4.0999   34.1370 H   0  0  0  0  0  0  0  0  0  0  0  0
  1  2  1  0
  2  3  2  0
  2  4  2  0
  2  5  1  0
  5  6  1  0
  6  7  2  0
  7  8  1  0
  8  9  2  0
  9 10  1  0
 10 11  1  0
 11 12  1  0
 12 13  2  0
 13 14  1  0
 14 15  2  0
 15 16  1  0
 16 17  2  0
 17 18  1  0
 17 19  1  0
 19 20  1  0
 20 21  1  0
 21 22  1  0
 22 23  2  0
 23 24  1  0
 24 25  2  0
 25 26  1  0
 26 27  2  0
 27 28  1  0
 28 29  2  0
 29 30  1  0
 25 31  1  0
 10 32  2  0
 32  6  1  0
 20 11  2  0
 31 22  1  0
 19 14  1  0
 30 26  1  0
  1 33  1  0
  1 34  1  0
  1 35  1  0
  5 36  1  0
  7 37  1  0
  8 38  1  0
  9 39  1  0
 12 40  1  0
 13 41  1  0
 18 42  1  0
 18 43  1  0
 27 44  1  0
 28 45  1  0
 29 46  1  0
 30 47  1  0
 32 48  1  0
M  END
>  <Energy>  (767) 
27.514945755415027

>  <compound_id>  (767) 
3716

>  <target_id>  (767) 
1

>  <reference_id>  (767) 
128

>  <inspiration_ids>  (767) 
[128, 195]

>  <energy_score>  (767) 
-73.87069446269524

>  <distance_score>  (767) 
1.4394006474770182

>  <path>  (767) 
/opt/xchem-fragalysis-2/maxwin/BulkDock/SCRATCH/505734/C3716-P128/C3716-P128.minimised.mol

>  <scratch_subdir>  (767) 
/opt/xchem-fragalysis-2/maxwin/BulkDock/SCRATCH/505734/C3716-P128

>  <fragmenstein_runtime>  (767) 
2.6762776374816895

>  <fragmenstein_outcome>  (767) 
too moved

>  <fragmenstein_mode>  (767) 
expansion

>  <fragmenstein_error>  (767) 


$$$$
C3716-P195
     RDKit          3D

 48 52  0  0  0  0  0  0  0  0999 V2000
    1.7542   -3.5263   37.2217 C   0  0  0  0  0  0  0  0  0  0  0  0
    2.3170   -1.9292   36.6750 S   0  0  0  0  0  0  0  0  0  0  0  0
    3.0272   -1.3137   37.7760 O   0  0  0  0  0  0  0  0  0  0  0  0
    1.2314   -1.2520   36.0028 O   0  0  0  0  0  0  0  0  0  0  0  0
    3.5210   -2.3711   35.5615 N   0  0  0  0  0  0  0  0  0  0  0  0
    3.1931   -2.2366   34.1800 C   0  0  0  0  0  0  0  0  0  0  0  0
    3.5340   -1.0748   33.4932 C   0  0  0  0  0  0  0  0  0  0  0  0
    3.1502   -0.9171   32.1590 C   0  0  0  0  0  0  0  0  0  0  0  0
    2.4109   -1.9090   31.5122 C   0  0  0  0  0  0  0  0  0  0  0  0
    2.0333   -3.0543   32.2094 C   0  0  0  0  0  0  0  0  0  0  0  0
    1.2182   -4.1175   31.5931 C   0  0  0  0  0  0  0  0  0  0  0  0
    1.7561   -5.0100   30.5682 C   0  0  0  0  0  0  0  0  0  0  0  0
    1.1074   -6.1240   30.1888 C   0  0  0  0  0  0  0  0  0  0  0  0
   -0.0188   -6.5551   30.9251 C   0  0  0  0  0  0  0  0  0  0  0  0
   -0.7087   -7.6737   30.9302 N   0  0  0  0  0  0  0  0  0  0  0  0
   -1.4184   -7.6951   32.1046 N   0  0  0  0  0  0  0  0  0  0  0  0
   -1.1790   -6.5703   32.7466 C   0  0  0  0  0  0  0  0  0  0  0  0
   -1.3680   -6.3417   34.0656 N   0  0  0  0  0  0  0  0  0  0  0  0
   -0.5041   -5.6939   31.9005 N   0  0  0  0  0  0  0  0  0  0  0  0
   -0.0332   -4.3708   32.0573 C   0  0  0  0  0  0  0  0  0  0  0  0
   -1.0544   -3.1012   32.7158 S   0  0  0  0  0  0  0  0  0  0  0  0
   -1.1659   -2.0990   31.2638 C   0  0  0  0  0  0  0  0  0  0  0  0
   -1.7811   -2.4780   30.1641 N   0  0  0  0  0  0  0  0  0  0  0  0
   -1.6298   -1.4571   29.2495 N   0  0  0  0  0  0  0  0  0  0  0  0
   -0.9176   -0.5182   29.8361 C   0  0  0  0  0  0  0  0  0  0  0  0
   -0.4900    0.6620   29.1698 C   0  0  0  0  0  0  0  0  0  0  0  0
    0.3274    1.6909   29.5908 C   0  0  0  0  0  0  0  0  0  0  0  0
    0.3962    2.6358   28.5369 C   0  0  0  0  0  0  0  0  0  0  0  0
   -0.3644    2.1487   27.4972 C   0  0  0  0  0  0  0  0  0  0  0  0
   -0.8834    0.9390   27.8810 N   0  0  0  0  0  0  0  0  0  0  0  0
   -0.6168   -0.8432   31.1398 O   0  0  0  0  0  0  0  0  0  0  0  0
    2.4445   -3.2226   33.5456 C   0  0  0  0  0  0  0  0  0  0  0  0
    2.6053   -4.0906   37.6070 H   0  0  0  0  0  0  0  0  0  0  0  0
    1.2813   -4.0460   36.3874 H   0  0  0  0  0  0  0  0  0  0  0  0
    1.0238   -3.3690   38.0185 H   0  0  0  0  0  0  0  0  0  0  0  0
    4.3935   -1.9173   35.8424 H   0  0  0  0  0  0  0  0  0  0  0  0
    4.0830   -0.2769   33.9859 H   0  0  0  0  0  0  0  0  0  0  0  0
    3.4177   -0.0084   31.6236 H   0  0  0  0  0  0  0  0  0  0  0  0
    2.1135   -1.7626   30.4758 H   0  0  0  0  0  0  0  0  0  0  0  0
    2.6615   -4.7013   30.0520 H   0  0  0  0  0  0  0  0  0  0  0  0
    1.4856   -6.7482   29.3910 H   0  0  0  0  0  0  0  0  0  0  0  0
   -1.8118   -7.1115   34.5625 H   0  0  0  0  0  0  0  0  0  0  0  0
   -1.7324   -5.4288   34.3486 H   0  0  0  0  0  0  0  0  0  0  0  0
    0.8012    1.7711   30.5606 H   0  0  0  0  0  0  0  0  0  0  0  0
    0.9254    3.5804   28.5423 H   0  0  0  0  0  0  0  0  0  0  0  0
   -0.5956    2.5642   26.5254 H   0  0  0  0  0  0  0  0  0  0  0  0
   -1.4805    0.3378   27.3198 H   0  0  0  0  0  0  0  0  0  0  0  0
    2.1686   -4.1209   34.0911 H   0  0  0  0  0  0  0  0  0  0  0  0
  1  2  1  0
  2  3  2  0
  2  4  2  0
  2  5  1  0
  5  6  1  0
  6  7  2  0
  7  8  1  0
  8  9  2  0
  9 10  1  0
 10 11  1  0
 11 12  1  0
 12 13  2  0
 13 14  1  0
 14 15  2  0
 15 16  1  0
 16 17  2  0
 17 18  1  0
 17 19  1  0
 19 20  1  0
 20 21  1  0
 21 22  1  0
 22 23  2  0
 23 24  1  0
 24 25  2  0
 25 26  1  0
 26 27  2  0
 27 28  1  0
 28 29  2  0
 29 30  1  0
 25 31  1  0
 10 32  2  0
 32  6  1  0
 20 11  2  0
 31 22  1  0
 19 14  1  0
 30 26  1  0
  1 33  1  0
  1 34  1  0
  1 35  1  0
  5 36  1  0
  7 37  1  0
  8 38  1  0
  9 39  1  0
 12 40  1  0
 13 41  1  0
 18 42  1  0
 18 43  1  0
 27 44  1  0
 28 45  1  0
 29 46  1  0
 30 47  1  0
 32 48  1  0
M  END
>  <Energy>  (768) 
27.070929199545258

>  <compound_id>  (768) 
3716

>  <target_id>  (768) 
1

>  <reference_id>  (768) 
195

>  <inspiration_ids>  (768) 
[128, 195]

>  <energy_score>  (768) 
-74.31471101856336

>  <distance_score>  (768) 
1.4540338162943858

>  <path>  (768) 
/opt/xchem-fragalysis-2/maxwin/BulkDock/SCRATCH/505734/C3716-P195/C3716-P195.minimised.mol

>  <scratch_subdir>  (768) 
/opt/xchem-fragalysis-2/maxwin/BulkDock/SCRATCH/505734/C3716-P195

>  <fragmenstein_runtime>  (768) 
2.790740728378296

>  <fragmenstein_outcome>  (768) 
too moved

>  <fragmenstein_mode>  (768) 
expansion

>  <fragmenstein_error>  (768) 


$$$$
C3716-P128
     RDKit          3D

 48 52  0  0  0  0  0  0  0  0999 V2000
    1.7174   -1.5011   36.8572 C   0  0  0  0  0  0  0  0  0  0  0  0
    2.8661   -2.8640   36.8632 S   0  0  0  0  0  0  0  0  0  0  0  0
    3.6833   -2.7402   38.0512 O   0  0  0  0  0  0  0  0  0  0  0  0
    2.1413   -4.0821   36.5750 O   0  0  0  0  0  0  0  0  0  0  0  0
    3.8828   -2.4815   35.5760 N   0  0  0  0  0  0  0  0  0  0  0  0
    3.3732   -2.3711   34.2513 C   0  0  0  0  0  0  0  0  0  0  0  0
    3.6609   -1.2232   33.5145 C   0  0  0  0  0  0  0  0  0  0  0  0
    3.1902   -1.0913   32.2046 C   0  0  0  0  0  0  0  0  0  0  0  0
    2.4281   -2.1050   31.6235 C   0  0  0  0  0  0  0  0  0  0  0  0
    2.1261   -3.2506   32.3582 C   0  0  0  0  0  0  0  0  0  0  0  0
    1.2897   -4.3389   31.8131 C   0  0  0  0  0  0  0  0  0  0  0  0
    1.7274   -5.1529   30.6862 C   0  0  0  0  0  0  0  0  0  0  0  0
    1.0126   -6.2043   30.2554 C   0  0  0  0  0  0  0  0  0  0  0  0
   -0.0927   -6.6616   31.0063 C   0  0  0  0  0  0  0  0  0  0  0  0
   -0.8496   -7.7307   30.9101 N   0  0  0  0  0  0  0  0  0  0  0  0
   -1.5621   -7.8226   32.0765 N   0  0  0  0  0  0  0  0  0  0  0  0
   -1.2411   -6.7982   32.8405 C   0  0  0  0  0  0  0  0  0  0  0  0
   -1.4596   -6.7169   34.1743 N   0  0  0  0  0  0  0  0  0  0  0  0
   -0.4802   -5.8958   32.0980 N   0  0  0  0  0  0  0  0  0  0  0  0
    0.0786   -4.6257   32.3634 C   0  0  0  0  0  0  0  0  0  0  0  0
   -0.8802   -3.3429   33.0921 S   0  0  0  0  0  0  0  0  0  0  0  0
   -1.0656   -2.3645   31.6183 C   0  0  0  0  0  0  0  0  0  0  0  0
   -1.5378   -2.8249   30.4785 N   0  0  0  0  0  0  0  0  0  0  0  0
   -1.3871   -1.8155   29.5465 N   0  0  0  0  0  0  0  0  0  0  0  0
   -0.8337   -0.7956   30.1673 C   0  0  0  0  0  0  0  0  0  0  0  0
   -0.4193    0.4012   29.5187 C   0  0  0  0  0  0  0  0  0  0  0  0
   -0.6462    0.8235   28.2232 C   0  0  0  0  0  0  0  0  0  0  0  0
   -0.0244    2.0864   28.0704 C   0  0  0  0  0  0  0  0  0  0  0  0
    0.5854    2.3909   29.2669 C   0  0  0  0  0  0  0  0  0  0  0  0
    0.3432    1.3605   30.1372 N   0  0  0  0  0  0  0  0  0  0  0  0
   -0.6346   -1.0605   31.5066 O   0  0  0  0  0  0  0  0  0  0  0  0
    2.6321   -3.3911   33.6625 C   0  0  0  0  0  0  0  0  0  0  0  0
    2.2758   -0.5662   36.9328 H   0  0  0  0  0  0  0  0  0  0  0  0
    1.0642   -1.6121   37.7257 H   0  0  0  0  0  0  0  0  0  0  0  0
    1.1211   -1.5333   35.9440 H   0  0  0  0  0  0  0  0  0  0  0  0
    4.6357   -1.8508   35.8516 H   0  0  0  0  0  0  0  0  0  0  0  0
    4.2585   -0.4219   33.9415 H   0  0  0  0  0  0  0  0  0  0  0  0
    3.4303   -0.1994   31.6294 H   0  0  0  0  0  0  0  0  0  0  0  0
    2.0719   -1.9902   30.6012 H   0  0  0  0  0  0  0  0  0  0  0  0
    2.6133   -4.8376   30.1410 H   0  0  0  0  0  0  0  0  0  0  0  0
    1.3331   -6.7707   29.3946 H   0  0  0  0  0  0  0  0  0  0  0  0
   -1.5501   -7.6333   34.6214 H   0  0  0  0  0  0  0  0  0  0  0  0
   -0.8938   -6.0848   34.7347 H   0  0  0  0  0  0  0  0  0  0  0  0
   -1.2149    0.2824   27.4731 H   0  0  0  0  0  0  0  0  0  0  0  0
   -0.0351    2.7110   27.1858 H   0  0  0  0  0  0  0  0  0  0  0  0
    1.1484    3.2627   29.5744 H   0  0  0  0  0  0  0  0  0  0  0  0
    0.6618    1.3207   31.0957 H   0  0  0  0  0  0  0  0  0  0  0  0
    2.4442   -4.3121   34.2094 H   0  0  0  0  0  0  0  0  0  0  0  0
  1  2  1  0
  2  3  2  0
  2  4  2  0
  2  5  1  0
  5  6  1  0
  6  7  2  0
  7  8  1  0
  8  9  2  0
  9 10  1  0
 10 11  1  0
 11 12  1  0
 12 13  2  0
 13 14  1  0
 14 15  2  0
 15 16  1  0
 16 17  2  0
 17 18  1  0
 17 19  1  0
 19 20  1  0
 20 21  1  0
 21 22  1  0
 22 23  2  0
 23 24  1  0
 24 25  2  0
 25 26  1  0
 26 27  2  0
 27 28  1  0
 28 29  2  0
 29 30  1  0
 25 31  1  0
 10 32  2  0
 32  6  1  0
 20 11  2  0
 31 22  1  0
 19 14  1  0
 30 26  1  0
  1 33  1  0
  1 34  1  0
  1 35  1  0
  5 36  1  0
  7 37  1  0
  8 38  1  0
  9 39  1  0
 12 40  1  0
 13 41  1  0
 18 42  1  0
 18 43  1  0
 27 44  1  0
 28 45  1  0
 29 46  1  0
 30 47  1  0
 32 48  1  0
M  END
>  <Energy>  (769) 
26.699023164182851

>  <compound_id>  (769) 
3716

>  <target_id>  (769) 
1

>  <reference_id>  (769) 
128

>  <inspiration_ids>  (769) 
[128, 196]

>  <energy_score>  (769) 
-58.36181715581414

>  <distance_score>  (769) 
1.2488209291136498

>  <path>  (769) 
/opt/xchem-fragalysis-2/maxwin/BulkDock/SCRATCH/505734/C3716-P128/C3716-P128.minimised.mol

>  <scratch_subdir>  (769) 
/opt/xchem-fragalysis-2/maxwin/BulkDock/SCRATCH/505734/C3716-P128

>  <fragmenstein_runtime>  (769) 
3.909886598587036

>  <fragmenstein_outcome>  (769) 
too moved

>  <fragmenstein_mode>  (769) 
expansion

>  <fragmenstein_error>  (769) 


$$$$
C3716-P196
     RDKit          3D

 48 52  0  0  0  0  0  0  0  0999 V2000
    1.5868   -1.6590   36.8696 C   0  0  0  0  0  0  0  0  0  0  0  0
    2.8118   -2.9537   36.8726 S   0  0  0  0  0  0  0  0  0  0  0  0
    3.6100   -2.7948   38.0695 O   0  0  0  0  0  0  0  0  0  0  0  0
    2.1607   -4.2088   36.5681 O   0  0  0  0  0  0  0  0  0  0  0  0
    3.8153   -2.5017   35.6004 N   0  0  0  0  0  0  0  0  0  0  0  0
    3.3204   -2.3854   34.2702 C   0  0  0  0  0  0  0  0  0  0  0  0
    3.6413   -1.2433   33.5370 C   0  0  0  0  0  0  0  0  0  0  0  0
    3.2015   -1.1066   32.2175 C   0  0  0  0  0  0  0  0  0  0  0  0
    2.4393   -2.1112   31.6215 C   0  0  0  0  0  0  0  0  0  0  0  0
    2.1018   -3.2508   32.3499 C   0  0  0  0  0  0  0  0  0  0  0  0
    1.2790   -4.3355   31.7742 C   0  0  0  0  0  0  0  0  0  0  0  0
    1.7369   -5.1096   30.6275 C   0  0  0  0  0  0  0  0  0  0  0  0
    1.0549   -6.1718   30.1721 C   0  0  0  0  0  0  0  0  0  0  0  0
   -0.0369   -6.6790   30.9120 C   0  0  0  0  0  0  0  0  0  0  0  0
   -0.7666   -7.7653   30.7913 N   0  0  0  0  0  0  0  0  0  0  0  0
   -1.4861   -7.8969   31.9506 N   0  0  0  0  0  0  0  0  0  0  0  0
   -1.1916   -6.8823   32.7386 C   0  0  0  0  0  0  0  0  0  0  0  0
   -1.4266   -6.8271   34.0704 N   0  0  0  0  0  0  0  0  0  0  0  0
   -0.4454   -5.9482   32.0198 N   0  0  0  0  0  0  0  0  0  0  0  0
    0.0735   -4.6668   32.3114 C   0  0  0  0  0  0  0  0  0  0  0  0
   -0.9111   -3.4639   33.1198 S   0  0  0  0  0  0  0  0  0  0  0  0
   -1.0243   -2.3032   31.7851 C   0  0  0  0  0  0  0  0  0  0  0  0
   -1.4139   -2.5630   30.5519 N   0  0  0  0  0  0  0  0  0  0  0  0
   -1.1489   -1.4206   29.8010 N   0  0  0  0  0  0  0  0  0  0  0  0
   -0.6111   -0.5458   30.6270 C   0  0  0  0  0  0  0  0  0  0  0  0
    0.0177    0.6769   30.2630 C   0  0  0  0  0  0  0  0  0  0  0  0
    0.2404    1.2405   29.0258 C   0  0  0  0  0  0  0  0  0  0  0  0
    0.9931    2.4250   29.2265 C   0  0  0  0  0  0  0  0  0  0  0  0
    1.1938    2.5645   30.5806 C   0  0  0  0  0  0  0  0  0  0  0  0
    0.6022    1.4972   31.1994 N   0  0  0  0  0  0  0  0  0  0  0  0
   -0.5855   -1.0113   31.9189 O   0  0  0  0  0  0  0  0  0  0  0  0
    2.5783   -3.3960   33.6652 C   0  0  0  0  0  0  0  0  0  0  0  0
    2.0899   -0.6945   36.9593 H   0  0  0  0  0  0  0  0  0  0  0  0
    0.9338   -1.8162   37.7311 H   0  0  0  0  0  0  0  0  0  0  0  0
    1.0007   -1.7157   35.9510 H   0  0  0  0  0  0  0  0  0  0  0  0
    4.5506   -1.8585   35.8938 H   0  0  0  0  0  0  0  0  0  0  0  0
    4.2452   -0.4516   33.9727 H   0  0  0  0  0  0  0  0  0  0  0  0
    3.4676   -0.2212   31.6425 H   0  0  0  0  0  0  0  0  0  0  0  0
    2.1137   -1.9939   30.5887 H   0  0  0  0  0  0  0  0  0  0  0  0
    2.6156   -4.7611   30.0897 H   0  0  0  0  0  0  0  0  0  0  0  0
    1.4059   -6.7058   29.3003 H   0  0  0  0  0  0  0  0  0  0  0  0
   -1.5377   -7.7471   34.5064 H   0  0  0  0  0  0  0  0  0  0  0  0
   -0.8848   -6.1958   34.6543 H   0  0  0  0  0  0  0  0  0  0  0  0
   -0.0792    0.8339   28.0734 H   0  0  0  0  0  0  0  0  0  0  0  0
    1.3509    3.0985   28.4575 H   0  0  0  0  0  0  0  0  0  0  0  0
    1.7083    3.3292   31.1473 H   0  0  0  0  0  0  0  0  0  0  0  0
    0.6127    1.3202   32.1950 H   0  0  0  0  0  0  0  0  0  0  0  0
    2.3723   -4.3181   34.2028 H   0  0  0  0  0  0  0  0  0  0  0  0
  1  2  1  0
  2  3  2  0
  2  4  2  0
  2  5  1  0
  5  6  1  0
  6  7  2  0
  7  8  1  0
  8  9  2  0
  9 10  1  0
 10 11  1  0
 11 12  1  0
 12 13  2  0
 13 14  1  0
 14 15  2  0
 15 16  1  0
 16 17  2  0
 17 18  1  0
 17 19  1  0
 19 20  1  0
 20 21  1  0
 21 22  1  0
 22 23  2  0
 23 24  1  0
 24 25  2  0
 25 26  1  0
 26 27  2  0
 27 28  1  0
 28 29  2  0
 29 30  1  0
 25 31  1  0
 10 32  2  0
 32  6  1  0
 20 11  2  0
 31 22  1  0
 19 14  1  0
 30 26  1  0
  1 33  1  0
  1 34  1  0
  1 35  1  0
  5 36  1  0
  7 37  1  0
  8 38  1  0
  9 39  1  0
 12 40  1  0
 13 41  1  0
 18 42  1  0
 18 43  1  0
 27 44  1  0
 28 45  1  0
 29 46  1  0
 30 47  1  0
 32 48  1  0
M  END
>  <Energy>  (770) 
25.599249591284497

>  <compound_id>  (770) 
3716

>  <target_id>  (770) 
1

>  <reference_id>  (770) 
196

>  <inspiration_ids>  (770) 
[128, 196]

>  <energy_score>  (770) 
-59.46159072870964

>  <distance_score>  (770) 
1.2841667683379023

>  <path>  (770) 
/opt/xchem-fragalysis-2/maxwin/BulkDock/SCRATCH/505734/C3716-P196/C3716-P196.minimised.mol

>  <scratch_subdir>  (770) 
/opt/xchem-fragalysis-2/maxwin/BulkDock/SCRATCH/505734/C3716-P196

>  <fragmenstein_runtime>  (770) 
3.461482524871826

>  <fragmenstein_outcome>  (770) 
too moved

>  <fragmenstein_mode>  (770) 
expansion

>  <fragmenstein_error>  (770) 


$$$$
C3717-P128
     RDKit          3D

 52 56  0  0  0  0  0  0  0  0999 V2000
    2.0696    0.5268   36.6859 C   0  0  0  0  0  0  0  0  0  0  0  0
    1.3553   -1.0620   36.3253 S   0  0  0  0  0  0  0  0  0  0  0  0
    0.9942   -1.6850   37.5796 O   0  0  0  0  0  0  0  0  0  0  0  0
    0.3938   -0.9136   35.2497 O   0  0  0  0  0  0  0  0  0  0  0  0
    2.7304   -1.9080   35.7773 N   0  0  0  0  0  0  0  0  0  0  0  0
    2.7290   -2.2090   34.3829 C   0  0  0  0  0  0  0  0  0  0  0  0
    3.1650   -1.2437   33.4804 C   0  0  0  0  0  0  0  0  0  0  0  0
    2.9463   -1.4282   32.1187 C   0  0  0  0  0  0  0  0  0  0  0  0
    2.2721   -2.5642   31.6653 C   0  0  0  0  0  0  0  0  0  0  0  0
    1.8274   -3.5414   32.5661 C   0  0  0  0  0  0  0  0  0  0  0  0
    1.0786   -4.7368   32.0990 C   0  0  0  0  0  0  0  0  0  0  0  0
    1.4975   -5.4617   30.8996 C   0  0  0  0  0  0  0  0  0  0  0  0
    0.8028   -6.5015   30.4151 C   0  0  0  0  0  0  0  0  0  0  0  0
   -0.2543   -7.0500   31.1644 C   0  0  0  0  0  0  0  0  0  0  0  0
   -1.0138   -8.1061   30.9910 N   0  0  0  0  0  0  0  0  0  0  0  0
   -1.7079   -8.2944   32.1577 N   0  0  0  0  0  0  0  0  0  0  0  0
   -1.3705   -7.3442   33.0031 C   0  0  0  0  0  0  0  0  0  0  0  0
   -1.6060   -7.3370   34.3412 N   0  0  0  0  0  0  0  0  0  0  0  0
   -0.5918   -6.4088   32.3411 N   0  0  0  0  0  0  0  0  0  0  0  0
   -0.0813   -5.1420   32.7052 C   0  0  0  0  0  0  0  0  0  0  0  0
   -0.9335   -4.2433   33.4061 N   0  0  0  0  0  0  0  0  0  0  0  0
   -1.4098   -3.2344   32.5944 C   0  0  0  0  0  0  0  0  0  0  0  0
   -2.0855   -3.3291   31.4680 N   0  0  0  0  0  0  0  0  0  0  0  0
   -1.8997   -2.1672   30.7779 N   0  0  0  0  0  0  0  0  0  0  0  0
   -1.1498   -1.3838   31.5223 C   0  0  0  0  0  0  0  0  0  0  0  0
   -0.4473   -0.2024   31.1133 C   0  0  0  0  0  0  0  0  0  0  0  0
   -0.0480    0.7617   32.0418 C   0  0  0  0  0  0  0  0  0  0  0  0
    0.6990    1.8664   31.6224 C   0  0  0  0  0  0  0  0  0  0  0  0
    1.0356    2.0127   30.2771 C   0  0  0  0  0  0  0  0  0  0  0  0
    0.6355    1.0512   29.3508 C   0  0  0  0  0  0  0  0  0  0  0  0
   -0.0970   -0.0603   29.7704 C   0  0  0  0  0  0  0  0  0  0  0  0
   -0.9776   -1.9568   32.7502 N   0  0  0  0  0  0  0  0  0  0  0  0
    2.0881   -3.3638   33.9331 C   0  0  0  0  0  0  0  0  0  0  0  0
    2.8757    0.3980   37.4104 H   0  0  0  0  0  0  0  0  0  0  0  0
    1.2862    1.1579   37.1111 H   0  0  0  0  0  0  0  0  0  0  0  0
    2.4389    0.9702   35.7598 H   0  0  0  0  0  0  0  0  0  0  0  0
    2.8725   -2.7139   36.3914 H   0  0  0  0  0  0  0  0  0  0  0  0
    3.6438   -0.3329   33.8269 H   0  0  0  0  0  0  0  0  0  0  0  0
    3.2594   -0.6673   31.4064 H   0  0  0  0  0  0  0  0  0  0  0  0
    2.0623   -2.6532   30.6002 H   0  0  0  0  0  0  0  0  0  0  0  0
    2.3532   -5.0879   30.3444 H   0  0  0  0  0  0  0  0  0  0  0  0
    1.1114   -6.9993   29.5111 H   0  0  0  0  0  0  0  0  0  0  0  0
   -1.7552   -8.2971   34.6884 H   0  0  0  0  0  0  0  0  0  0  0  0
   -0.9234   -6.8765   34.9368 H   0  0  0  0  0  0  0  0  0  0  0  0
   -1.7424   -4.7678   33.7728 H   0  0  0  0  0  0  0  0  0  0  0  0
   -0.3074    0.6797   33.0935 H   0  0  0  0  0  0  0  0  0  0  0  0
    1.0029    2.6253   32.3386 H   0  0  0  0  0  0  0  0  0  0  0  0
    1.5916    2.8860   29.9445 H   0  0  0  0  0  0  0  0  0  0  0  0
    0.8772    1.1699   28.2971 H   0  0  0  0  0  0  0  0  0  0  0  0
   -0.4092   -0.8000   29.0325 H   0  0  0  0  0  0  0  0  0  0  0  0
   -0.3758   -1.6342   33.4967 H   0  0  0  0  0  0  0  0  0  0  0  0
    1.7210   -4.0899   34.6541 H   0  0  0  0  0  0  0  0  0  0  0  0
  1  2  1  0
  2  3  2  0
  2  4  2  0
  2  5  1  0
  5  6  1  0
  6  7  2  0
  7  8  1  0
  8  9  2  0
  9 10  1  0
 10 11  1  0
 11 12  1  0
 12 13  2  0
 13 14  1  0
 14 15  2  0
 15 16  1  0
 16 17  2  0
 17 18  1  0
 17 19  1  0
 19 20  1  0
 20 21  1  0
 21 22  1  0
 22 23  2  0
 23 24  1  0
 24 25  2  0
 25 26  1  0
 26 27  2  0
 27 28  1  0
 28 29  2  0
 29 30  1  0
 30 31  2  0
 25 32  1  0
 10 33  2  0
 33  6  1  0
 20 11  2  0
 32 22  1  0
 19 14  1  0
 31 26  1  0
  1 34  1  0
  1 35  1  0
  1 36  1  0
  5 37  1  0
  7 38  1  0
  8 39  1  0
  9 40  1  0
 12 41  1  0
 13 42  1  0
 18 43  1  0
 18 44  1  0
 21 45  1  0
 27 46  1  0
 28 47  1  0
 29 48  1  0
 30 49  1  0
 31 50  1  0
 32 51  1  0
 33 52  1  0
M  END
>  <Energy>  (771) 
41.324015214858548

>  <compound_id>  (771) 
3717

>  <target_id>  (771) 
1

>  <reference_id>  (771) 
128

>  <inspiration_ids>  (771) 
[128, 197]

>  <energy_score>  (771) 
-79.47087114048014

>  <distance_score>  (771) 
2.0468433879933037

>  <path>  (771) 
/opt/xchem-fragalysis-2/maxwin/BulkDock/SCRATCH/505734/C3717-P128/C3717-P128.minimised.mol

>  <scratch_subdir>  (771) 
/opt/xchem-fragalysis-2/maxwin/BulkDock/SCRATCH/505734/C3717-P128

>  <fragmenstein_runtime>  (771) 
3.8630566596984863

>  <fragmenstein_outcome>  (771) 
too moved

>  <fragmenstein_mode>  (771) 
expansion

>  <fragmenstein_error>  (771) 


$$$$
C3717-P197
     RDKit          3D

 52 56  0  0  0  0  0  0  0  0999 V2000
    1.2168   -0.2197   36.8120 C   0  0  0  0  0  0  0  0  0  0  0  0
    0.8815   -1.9271   36.4441 S   0  0  0  0  0  0  0  0  0  0  0  0
    0.7053   -2.6259   37.6987 O   0  0  0  0  0  0  0  0  0  0  0  0
   -0.1153   -2.0176   35.3955 O   0  0  0  0  0  0  0  0  0  0  0  0
    2.3996   -2.4319   35.8569 N   0  0  0  0  0  0  0  0  0  0  0  0
    2.5045   -2.5072   34.4375 C   0  0  0  0  0  0  0  0  0  0  0  0
    2.9915   -1.4142   33.7272 C   0  0  0  0  0  0  0  0  0  0  0  0
    2.9155   -1.4097   32.3356 C   0  0  0  0  0  0  0  0  0  0  0  0
    2.3222   -2.4802   31.6617 C   0  0  0  0  0  0  0  0  0  0  0  0
    1.8207   -3.5746   32.3746 C   0  0  0  0  0  0  0  0  0  0  0  0
    1.1151   -4.6810   31.7083 C   0  0  0  0  0  0  0  0  0  0  0  0
    1.6173   -5.3936   30.5319 C   0  0  0  0  0  0  0  0  0  0  0  0
    1.0077   -6.5114   30.0901 C   0  0  0  0  0  0  0  0  0  0  0  0
   -0.0372   -7.0856   30.8570 C   0  0  0  0  0  0  0  0  0  0  0  0
   -0.6796   -8.2313   30.8444 N   0  0  0  0  0  0  0  0  0  0  0  0
   -1.3395   -8.3345   32.0532 N   0  0  0  0  0  0  0  0  0  0  0  0
   -1.1305   -7.2264   32.7338 C   0  0  0  0  0  0  0  0  0  0  0  0
   -1.3815   -6.9987   34.0400 N   0  0  0  0  0  0  0  0  0  0  0  0
   -0.5093   -6.3166   31.9010 N   0  0  0  0  0  0  0  0  0  0  0  0
   -0.1914   -4.9402   32.0294 C   0  0  0  0  0  0  0  0  0  0  0  0
   -1.1475   -4.1769   31.2623 N   0  0  0  0  0  0  0  0  0  0  0  0
   -1.1657   -2.8335   31.1315 C   0  0  0  0  0  0  0  0  0  0  0  0
   -1.2390   -2.0899   30.0518 N   0  0  0  0  0  0  0  0  0  0  0  0
   -1.1740   -0.7797   30.4602 N   0  0  0  0  0  0  0  0  0  0  0  0
   -1.1162   -0.7850   31.7749 C   0  0  0  0  0  0  0  0  0  0  0  0
   -0.9439    0.2866   32.7058 C   0  0  0  0  0  0  0  0  0  0  0  0
   -1.7884    0.4050   33.8170 C   0  0  0  0  0  0  0  0  0  0  0  0
   -1.5559    1.4091   34.7593 C   0  0  0  0  0  0  0  0  0  0  0  0
   -0.4813    2.2845   34.5951 C   0  0  0  0  0  0  0  0  0  0  0  0
    0.3653    2.1534   33.4928 C   0  0  0  0  0  0  0  0  0  0  0  0
    0.1378    1.1479   32.5509 C   0  0  0  0  0  0  0  0  0  0  0  0
   -1.1286   -2.0584   32.2306 N   0  0  0  0  0  0  0  0  0  0  0  0
    1.9459   -3.5953   33.7692 C   0  0  0  0  0  0  0  0  0  0  0  0
    2.0301   -0.1671   37.5382 H   0  0  0  0  0  0  0  0  0  0  0  0
    0.3111    0.2168   37.2382 H   0  0  0  0  0  0  0  0  0  0  0  0
    1.4829    0.2979   35.8903 H   0  0  0  0  0  0  0  0  0  0  0  0
    2.6706   -3.2807   36.3597 H   0  0  0  0  0  0  0  0  0  0  0  0
    3.4115   -0.5578   34.2465 H   0  0  0  0  0  0  0  0  0  0  0  0
    3.2855   -0.5565   31.7716 H   0  0  0  0  0  0  0  0  0  0  0  0
    2.2191   -2.4292   30.5784 H   0  0  0  0  0  0  0  0  0  0  0  0
    2.4678   -4.9815   29.9954 H   0  0  0  0  0  0  0  0  0  0  0  0
    1.3976   -7.0369   29.2300 H   0  0  0  0  0  0  0  0  0  0  0  0
   -1.8584   -7.7487   34.5336 H   0  0  0  0  0  0  0  0  0  0  0  0
   -1.6151   -6.0592   34.3606 H   0  0  0  0  0  0  0  0  0  0  0  0
   -1.1276   -4.5386   30.3011 H   0  0  0  0  0  0  0  0  0  0  0  0
   -2.6219   -0.2787   33.9618 H   0  0  0  0  0  0  0  0  0  0  0  0
   -2.2095    1.5052   35.6227 H   0  0  0  0  0  0  0  0  0  0  0  0
   -0.3022    3.0707   35.3249 H   0  0  0  0  0  0  0  0  0  0  0  0
    1.2006    2.8375   33.3619 H   0  0  0  0  0  0  0  0  0  0  0  0
    0.8000    1.0519   31.6924 H   0  0  0  0  0  0  0  0  0  0  0  0
   -1.0301   -2.3615   33.1906 H   0  0  0  0  0  0  0  0  0  0  0  0
    1.5381   -4.4254   34.3414 H   0  0  0  0  0  0  0  0  0  0  0  0
  1  2  1  0
  2  3  2  0
  2  4  2  0
  2  5  1  0
  5  6  1  0
  6  7  2  0
  7  8  1  0
  8  9  2  0
  9 10  1  0
 10 11  1  0
 11 12  1  0
 12 13  2  0
 13 14  1  0
 14 15  2  0
 15 16  1  0
 16 17  2  0
 17 18  1  0
 17 19  1  0
 19 20  1  0
 20 21  1  0
 21 22  1  0
 22 23  2  0
 23 24  1  0
 24 25  2  0
 25 26  1  0
 26 27  2  0
 27 28  1  0
 28 29  2  0
 29 30  1  0
 30 31  2  0
 25 32  1  0
 10 33  2  0
 33  6  1  0
 20 11  2  0
 32 22  1  0
 19 14  1  0
 31 26  1  0
  1 34  1  0
  1 35  1  0
  1 36  1  0
  5 37  1  0
  7 38  1  0
  8 39  1  0
  9 40  1  0
 12 41  1  0
 13 42  1  0
 18 43  1  0
 18 44  1  0
 21 45  1  0
 27 46  1  0
 28 47  1  0
 29 48  1  0
 30 49  1  0
 31 50  1  0
 32 51  1  0
 33 52  1  0
M  END
>  <Energy>  (772) 
83.278460562308297

>  <compound_id>  (772) 
3717

>  <target_id>  (772) 
1

>  <reference_id>  (772) 
197

>  <inspiration_ids>  (772) 
[128, 197]

>  <energy_score>  (772) 
-37.51642579303004

>  <distance_score>  (772) 
1.9375795283971535

>  <path>  (772) 
/opt/xchem-fragalysis-2/maxwin/BulkDock/SCRATCH/505734/C3717-P197/C3717-P197.minimised.mol

>  <scratch_subdir>  (772) 
/opt/xchem-fragalysis-2/maxwin/BulkDock/SCRATCH/505734/C3717-P197

>  <fragmenstein_runtime>  (772) 
3.3049514293670654

>  <fragmenstein_outcome>  (772) 
too moved

>  <fragmenstein_mode>  (772) 
expansion

>  <fragmenstein_error>  (772) 


$$$$
C3718-P128
     RDKit          3D

 61 65  0  0  0  0  0  0  0  0999 V2000
    3.4944   -2.6925   36.2166 C   0  0  0  0  0  0  0  0  0  0  0  0
    4.9476   -3.5577   35.6520 S   0  0  0  0  0  0  0  0  0  0  0  0
    4.6167   -4.9496   35.4360 O   0  0  0  0  0  0  0  0  0  0  0  0
    6.0417   -3.1842   36.5250 O   0  0  0  0  0  0  0  0  0  0  0  0
    5.2821   -2.8177   34.1873 N   0  0  0  0  0  0  0  0  0  0  0  0
    4.3659   -2.7792   33.0957 C   0  0  0  0  0  0  0  0  0  0  0  0
    4.4703   -1.7167   32.2009 C   0  0  0  0  0  0  0  0  0  0  0  0
    3.6638   -1.6640   31.0576 C   0  0  0  0  0  0  0  0  0  0  0  0
    2.7266   -2.6645   30.7939 C   0  0  0  0  0  0  0  0  0  0  0  0
    2.5667   -3.7065   31.7023 C   0  0  0  0  0  0  0  0  0  0  0  0
    1.3971   -4.6604   31.6681 C   0  0  0  0  0  0  0  0  0  0  0  0
    1.2079   -5.4855   30.3905 C   0  0  0  0  0  0  0  0  0  0  0  0
    0.2250   -6.6519   30.6385 C   0  0  0  0  0  0  0  0  0  0  0  0
   -0.3014   -6.7050   32.0430 C   0  0  0  0  0  0  0  0  0  0  0  0
   -0.8458   -7.7285   32.6455 N   0  0  0  0  0  0  0  0  0  0  0  0
   -1.1763   -7.3171   33.9118 N   0  0  0  0  0  0  0  0  0  0  0  0
   -0.8667   -6.0469   34.0527 C   0  0  0  0  0  0  0  0  0  0  0  0
   -1.0039   -5.2969   35.1487 N   0  0  0  0  0  0  0  0  0  0  0  0
   -0.3719   -5.5763   32.8895 N   0  0  0  0  0  0  0  0  0  0  0  0
   -0.0145   -4.2397   32.2768 C   0  0  0  0  0  0  0  0  0  0  0  0
   -1.2906   -4.1030   31.2938 C   0  0  0  0  0  0  0  0  0  0  0  0
   -2.3964   -3.0912   31.6992 C   0  0  0  0  0  0  0  0  0  0  0  0
   -1.9884   -1.6744   31.4948 C   0  0  0  0  0  0  0  0  0  0  0  0
   -0.4866   -1.6590   31.5223 C   0  0  0  0  0  0  0  0  0  0  0  0
   -0.0440   -0.4253   30.7971 C   0  0  0  0  0  0  0  0  0  0  0  0
   -0.2763   -0.4743   29.3755 C   0  0  0  0  0  0  0  0  0  0  0  0
   -0.1722    0.6397   28.5611 C   0  0  0  0  0  0  0  0  0  0  0  0
    0.2106    1.8312   29.1442 C   0  0  0  0  0  0  0  0  0  0  0  0
    0.4894    1.8871   30.5200 C   0  0  0  0  0  0  0  0  0  0  0  0
    0.3495    0.7697   31.3565 C   0  0  0  0  0  0  0  0  0  0  0  0
    0.0498   -2.4999   33.0244 S   0  0  0  0  0  0  0  0  0  0  0  0
   -0.9861   -2.3923   34.0372 O   0  0  0  0  0  0  0  0  0  0  0  0
    1.3596   -2.0168   33.3763 O   0  0  0  0  0  0  0  0  0  0  0  0
    3.4506   -3.7906   32.8138 C   0  0  0  0  0  0  0  0  0  0  0  0
    2.6452   -2.9579   35.5877 H   0  0  0  0  0  0  0  0  0  0  0  0
    3.6883   -1.6186   36.1937 H   0  0  0  0  0  0  0  0  0  0  0  0
    3.2984   -3.0089   37.2437 H   0  0  0  0  0  0  0  0  0  0  0  0
    5.9097   -2.0220   34.2972 H   0  0  0  0  0  0  0  0  0  0  0  0
    5.1890   -0.9186   32.3659 H   0  0  0  0  0  0  0  0  0  0  0  0
    3.7650   -0.8270   30.3688 H   0  0  0  0  0  0  0  0  0  0  0  0
    2.1074   -2.5770   29.9053 H   0  0  0  0  0  0  0  0  0  0  0  0
    1.7973   -5.4261   32.3570 H   0  0  0  0  0  0  0  0  0  0  0  0
    0.8557   -4.8591   29.5632 H   0  0  0  0  0  0  0  0  0  0  0  0
    2.1710   -5.8802   30.0484 H   0  0  0  0  0  0  0  0  0  0  0  0
   -0.6216   -6.5671   29.9515 H   0  0  0  0  0  0  0  0  0  0  0  0
    0.6915   -7.6073   30.3910 H   0  0  0  0  0  0  0  0  0  0  0  0
   -1.4985   -4.4049   35.0353 H   0  0  0  0  0  0  0  0  0  0  0  0
   -1.4411   -5.7986   35.9193 H   0  0  0  0  0  0  0  0  0  0  0  0
   -1.0020   -3.9420   30.2488 H   0  0  0  0  0  0  0  0  0  0  0  0
   -1.8055   -5.0479   31.3048 H   0  0  0  0  0  0  0  0  0  0  0  0
   -2.6808   -3.2331   32.7407 H   0  0  0  0  0  0  0  0  0  0  0  0
   -3.3145   -3.2091   31.1382 H   0  0  0  0  0  0  0  0  0  0  0  0
   -2.3787   -1.3097   30.5447 H   0  0  0  0  0  0  0  0  0  0  0  0
   -2.4231   -1.0216   32.2623 H   0  0  0  0  0  0  0  0  0  0  0  0
   -0.0509   -2.3485   30.7968 H   0  0  0  0  0  0  0  0  0  0  0  0
   -0.6147   -1.3948   28.8946 H   0  0  0  0  0  0  0  0  0  0  0  0
   -0.3980    0.5797   27.5005 H   0  0  0  0  0  0  0  0  0  0  0  0
    0.2969    2.7328   28.5413 H   0  0  0  0  0  0  0  0  0  0  0  0
    0.7921    2.8408   30.9521 H   0  0  0  0  0  0  0  0  0  0  0  0
    0.5238    0.8665   32.4248 H   0  0  0  0  0  0  0  0  0  0  0  0
    3.3609   -4.6336   33.4925 H   0  0  0  0  0  0  0  0  0  0  0  0
  1  2  1  0
  2  3  2  0
  2  4  2  0
  2  5  1  0
  5  6  1  0
  6  7  2  0
  7  8  1  0
  8  9  2  0
  9 10  1  0
 10 11  1  0
 11 12  1  0
 12 13  1  0
 13 14  1  0
 14 15  2  0
 15 16  1  0
 16 17  2  0
 17 18  1  0
 17 19  1  0
 19 20  1  0
 20 21  1  0
 21 22  1  0
 22 23  1  0
 23 24  1  0
 24 25  1  0
 25 26  2  0
 26 27  1  0
 27 28  2  0
 28 29  1  0
 29 30  2  0
 24 31  1  0
 31 32  2  0
 31 33  2  0
 10 34  2  0
 34  6  1  0
 20 11  1  0
 30 25  1  0
 19 14  1  0
 31 20  1  0
  1 35  1  0
  1 36  1  0
  1 37  1  0
  5 38  1  0
  7 39  1  0
  8 40  1  0
  9 41  1  0
 11 42  1  0
 12 43  1  0
 12 44  1  0
 13 45  1  0
 13 46  1  0
 18 47  1  0
 18 48  1  0
 21 49  1  0
 21 50  1  0
 22 51  1  0
 22 52  1  0
 23 53  1  0
 23 54  1  0
 24 55  1  0
 26 56  1  0
 27 57  1  0
 28 58  1  0
 29 59  1  0
 30 60  1  0
 34 61  1  0
M  END
>  <Energy>  (773) 
94.2729998578248

>  <compound_id>  (773) 
3718

>  <target_id>  (773) 
1

>  <reference_id>  (773) 
128

>  <inspiration_ids>  (773) 
[128, 198]

>  <energy_score>  (773) 
-18.597195670022302

>  <distance_score>  (773) 
1.8825716031947357

>  <path>  (773) 
/opt/xchem-fragalysis-2/maxwin/BulkDock/SCRATCH/505734/C3718-P128/C3718-P128.minimised.mol

>  <scratch_subdir>  (773) 
/opt/xchem-fragalysis-2/maxwin/BulkDock/SCRATCH/505734/C3718-P128

>  <fragmenstein_runtime>  (773) 
12.174355030059814

>  <fragmenstein_outcome>  (773) 
too moved

>  <fragmenstein_mode>  (773) 
expansion

>  <fragmenstein_error>  (773) 


$$$$
C3718-P198
     RDKit          3D

 61 65  0  0  0  0  0  0  0  0999 V2000
    1.7215   -0.4221   36.8276 C   0  0  0  0  0  0  0  0  0  0  0  0
    2.2042   -1.9599   37.5913 S   0  0  0  0  0  0  0  0  0  0  0  0
    1.1698   -2.9416   37.3424 O   0  0  0  0  0  0  0  0  0  0  0  0
    2.6455   -1.6587   38.9362 O   0  0  0  0  0  0  0  0  0  0  0  0
    3.5986   -2.3753   36.7339 N   0  0  0  0  0  0  0  0  0  0  0  0
    3.4998   -2.5703   35.3269 C   0  0  0  0  0  0  0  0  0  0  0  0
    4.1296   -1.6710   34.4717 C   0  0  0  0  0  0  0  0  0  0  0  0
    3.9809   -1.8134   33.0979 C   0  0  0  0  0  0  0  0  0  0  0  0
    3.1904   -2.8416   32.5855 C   0  0  0  0  0  0  0  0  0  0  0  0
    2.5083   -3.7302   33.4346 C   0  0  0  0  0  0  0  0  0  0  0  0
    1.4865   -4.7458   32.9372 C   0  0  0  0  0  0  0  0  0  0  0  0
    1.9492   -5.4618   31.6084 C   0  0  0  0  0  0  0  0  0  0  0  0
    0.8897   -5.8114   30.5395 C   0  0  0  0  0  0  0  0  0  0  0  0
   -0.3663   -6.1334   31.2193 C   0  0  0  0  0  0  0  0  0  0  0  0
   -1.0907   -7.2117   31.0462 N   0  0  0  0  0  0  0  0  0  0  0  0
   -1.6288   -7.5014   32.2601 N   0  0  0  0  0  0  0  0  0  0  0  0
   -1.2303   -6.5826   33.1144 C   0  0  0  0  0  0  0  0  0  0  0  0
   -1.2468   -6.7501   34.4491 N   0  0  0  0  0  0  0  0  0  0  0  0
   -0.7182   -5.4997   32.3991 N   0  0  0  0  0  0  0  0  0  0  0  0
   -0.0070   -4.2561   32.8556 C   0  0  0  0  0  0  0  0  0  0  0  0
   -0.6780   -3.6286   34.1293 C   0  0  0  0  0  0  0  0  0  0  0  0
   -1.7291   -2.4767   33.9307 C   0  0  0  0  0  0  0  0  0  0  0  0
   -2.4405   -2.2585   32.5670 C   0  0  0  0  0  0  0  0  0  0  0  0
   -1.6111   -2.4847   31.3015 C   0  0  0  0  0  0  0  0  0  0  0  0
   -1.6018   -1.3748   30.2605 C   0  0  0  0  0  0  0  0  0  0  0  0
   -1.8673   -1.7032   28.9271 C   0  0  0  0  0  0  0  0  0  0  0  0
   -1.7827   -0.7548   27.9090 C   0  0  0  0  0  0  0  0  0  0  0  0
   -1.3620    0.5341   28.1880 C   0  0  0  0  0  0  0  0  0  0  0  0
   -1.0438    0.8709   29.4958 C   0  0  0  0  0  0  0  0  0  0  0  0
   -1.2004   -0.0584   30.5321 C   0  0  0  0  0  0  0  0  0  0  0  0
    0.0793   -2.7568   31.7307 S   0  0  0  0  0  0  0  0  0  0  0  0
    0.4818   -1.6190   32.5448 O   0  0  0  0  0  0  0  0  0  0  0  0
    0.8377   -3.0371   30.5334 O   0  0  0  0  0  0  0  0  0  0  0  0
    2.7172   -3.6044   34.8128 C   0  0  0  0  0  0  0  0  0  0  0  0
    1.4101   -0.6085   35.7986 H   0  0  0  0  0  0  0  0  0  0  0  0
    2.5608    0.2745   36.8702 H   0  0  0  0  0  0  0  0  0  0  0  0
    0.8798   -0.0193   37.3958 H   0  0  0  0  0  0  0  0  0  0  0  0
    4.4206   -1.8777   37.0770 H   0  0  0  0  0  0  0  0  0  0  0  0
    4.7330   -0.8552   34.8582 H   0  0  0  0  0  0  0  0  0  0  0  0
    4.4664   -1.1160   32.4189 H   0  0  0  0  0  0  0  0  0  0  0  0
    3.0880   -2.8828   31.5029 H   0  0  0  0  0  0  0  0  0  0  0  0
    1.4993   -5.5466   33.6956 H   0  0  0  0  0  0  0  0  0  0  0  0
    2.7909   -4.9722   31.1120 H   0  0  0  0  0  0  0  0  0  0  0  0
    2.3446   -6.4095   31.9742 H   0  0  0  0  0  0  0  0  0  0  0  0
    0.7416   -5.0473   29.7798 H   0  0  0  0  0  0  0  0  0  0  0  0
    1.2210   -6.6803   29.9658 H   0  0  0  0  0  0  0  0  0  0  0  0
   -0.5460   -6.3205   35.0435 H   0  0  0  0  0  0  0  0  0  0  0  0
   -1.3934   -7.7255   34.7226 H   0  0  0  0  0  0  0  0  0  0  0  0
   -1.1265   -4.3766   34.7786 H   0  0  0  0  0  0  0  0  0  0  0  0
    0.1018   -3.1887   34.7586 H   0  0  0  0  0  0  0  0  0  0  0  0
   -1.2254   -1.5323   34.1828 H   0  0  0  0  0  0  0  0  0  0  0  0
   -2.4851   -2.5431   34.7224 H   0  0  0  0  0  0  0  0  0  0  0  0
   -3.3345   -2.8842   32.5144 H   0  0  0  0  0  0  0  0  0  0  0  0
   -2.8475   -1.2383   32.5751 H   0  0  0  0  0  0  0  0  0  0  0  0
   -1.9432   -3.4141   30.8288 H   0  0  0  0  0  0  0  0  0  0  0  0
   -2.1333   -2.7162   28.6537 H   0  0  0  0  0  0  0  0  0  0  0  0
   -2.0438   -1.0320   26.8929 H   0  0  0  0  0  0  0  0  0  0  0  0
   -1.2749    1.2670   27.3916 H   0  0  0  0  0  0  0  0  0  0  0  0
   -0.6591    1.8659   29.7013 H   0  0  0  0  0  0  0  0  0  0  0  0
   -0.9359    0.2487   31.5415 H   0  0  0  0  0  0  0  0  0  0  0  0
    2.2328   -4.2900   35.5056 H   0  0  0  0  0  0  0  0  0  0  0  0
  1  2  1  0
  2  3  2  0
  2  4  2  0
  2  5  1  0
  5  6  1  0
  6  7  2  0
  7  8  1  0
  8  9  2  0
  9 10  1  0
 10 11  1  0
 11 12  1  0
 12 13  1  0
 13 14  1  0
 14 15  2  0
 15 16  1  0
 16 17  2  0
 17 18  1  0
 17 19  1  0
 19 20  1  0
 20 21  1  0
 21 22  1  0
 22 23  1  0
 23 24  1  0
 24 25  1  0
 25 26  2  0
 26 27  1  0
 27 28  2  0
 28 29  1  0
 29 30  2  0
 24 31  1  0
 31 32  2  0
 31 33  2  0
 10 34  2  0
 34  6  1  0
 20 11  1  0
 30 25  1  0
 19 14  1  0
 31 20  1  0
  1 35  1  0
  1 36  1  0
  1 37  1  0
  5 38  1  0
  7 39  1  0
  8 40  1  0
  9 41  1  0
 11 42  1  0
 12 43  1  0
 12 44  1  0
 13 45  1  0
 13 46  1  0
 18 47  1  0
 18 48  1  0
 21 49  1  0
 21 50  1  0
 22 51  1  0
 22 52  1  0
 23 53  1  0
 23 54  1  0
 24 55  1  0
 26 56  1  0
 27 57  1  0
 28 58  1  0
 29 59  1  0
 30 60  1  0
 34 61  1  0
M  END
>  <Energy>  (774) 
40.118108019380927

>  <compound_id>  (774) 
3718

>  <target_id>  (774) 
1

>  <reference_id>  (774) 
198

>  <inspiration_ids>  (774) 
[128, 198]

>  <energy_score>  (774) 
-72.75208750846622

>  <distance_score>  (774) 
1.1022778275575043

>  <path>  (774) 
/opt/xchem-fragalysis-2/maxwin/BulkDock/SCRATCH/505734/C3718-P198/C3718-P198.minimised.mol

>  <scratch_subdir>  (774) 
/opt/xchem-fragalysis-2/maxwin/BulkDock/SCRATCH/505734/C3718-P198

>  <fragmenstein_runtime>  (774) 
12.355897188186646

>  <fragmenstein_outcome>  (774) 
too moved

>  <fragmenstein_mode>  (774) 
expansion

>  <fragmenstein_error>  (774) 


$$$$
C3718-P128
     RDKit          3D

 61 65  0  0  0  0  0  0  0  0999 V2000
    6.7445   -3.3598   35.4636 C   0  0  0  0  0  0  0  0  0  0  0  0
    5.6890   -2.2231   36.3416 S   0  0  0  0  0  0  0  0  0  0  0  0
    5.9916   -0.8771   35.9123 O   0  0  0  0  0  0  0  0  0  0  0  0
    5.7282   -2.5897   37.7416 O   0  0  0  0  0  0  0  0  0  0  0  0
    4.1585   -2.6684   35.8128 N   0  0  0  0  0  0  0  0  0  0  0  0
    3.7761   -2.6323   34.4418 C   0  0  0  0  0  0  0  0  0  0  0  0
    4.1116   -1.5898   33.5856 C   0  0  0  0  0  0  0  0  0  0  0  0
    3.6820   -1.6068   32.2582 C   0  0  0  0  0  0  0  0  0  0  0  0
    2.8741   -2.6412   31.7867 C   0  0  0  0  0  0  0  0  0  0  0  0
    2.4298   -3.6409   32.6542 C   0  0  0  0  0  0  0  0  0  0  0  0
    1.4269   -4.7044   32.2490 C   0  0  0  0  0  0  0  0  0  0  0  0
    1.6512   -5.2956   30.8255 C   0  0  0  0  0  0  0  0  0  0  0  0
    0.5780   -6.2995   30.3621 C   0  0  0  0  0  0  0  0  0  0  0  0
   -0.3587   -6.6722   31.4349 C   0  0  0  0  0  0  0  0  0  0  0  0
   -0.9596   -7.8253   31.5845 N   0  0  0  0  0  0  0  0  0  0  0  0
   -1.4239   -7.8583   32.8653 N   0  0  0  0  0  0  0  0  0  0  0  0
   -1.1406   -6.7149   33.4447 C   0  0  0  0  0  0  0  0  0  0  0  0
   -1.2377   -6.4641   34.7622 N   0  0  0  0  0  0  0  0  0  0  0  0
   -0.6419   -5.8459   32.5107 N   0  0  0  0  0  0  0  0  0  0  0  0
   -0.0930   -4.4519   32.5692 C   0  0  0  0  0  0  0  0  0  0  0  0
   -0.3972   -3.7034   33.9059 C   0  0  0  0  0  0  0  0  0  0  0  0
   -0.1896   -2.1708   33.9907 C   0  0  0  0  0  0  0  0  0  0  0  0
   -0.8654   -1.3085   32.9109 C   0  0  0  0  0  0  0  0  0  0  0  0
   -0.4371   -1.7363   31.5140 C   0  0  0  0  0  0  0  0  0  0  0  0
   -0.8108   -0.8310   30.3321 C   0  0  0  0  0  0  0  0  0  0  0  0
   -1.4672   -1.2833   29.1774 C   0  0  0  0  0  0  0  0  0  0  0  0
   -1.6113   -0.4923   28.0395 C   0  0  0  0  0  0  0  0  0  0  0  0
   -1.1415    0.8044   28.0266 C   0  0  0  0  0  0  0  0  0  0  0  0
   -0.4968    1.2940   29.1518 C   0  0  0  0  0  0  0  0  0  0  0  0
   -0.3280    0.4880   30.2888 C   0  0  0  0  0  0  0  0  0  0  0  0
   -0.9516   -3.4343   31.2680 S   0  0  0  0  0  0  0  0  0  0  0  0
   -0.4679   -3.8317   29.9642 O   0  0  0  0  0  0  0  0  0  0  0  0
   -2.3767   -3.5068   31.5516 O   0  0  0  0  0  0  0  0  0  0  0  0
    2.9233   -3.6393   33.9776 C   0  0  0  0  0  0  0  0  0  0  0  0
    6.6973   -3.1484   34.3944 H   0  0  0  0  0  0  0  0  0  0  0  0
    7.7656   -3.2108   35.8220 H   0  0  0  0  0  0  0  0  0  0  0  0
    6.4235   -4.3806   35.6796 H   0  0  0  0  0  0  0  0  0  0  0  0
    3.7424   -3.3784   36.4150 H   0  0  0  0  0  0  0  0  0  0  0  0
    4.7069   -0.7449   33.9205 H   0  0  0  0  0  0  0  0  0  0  0  0
    3.9801   -0.8023   31.5875 H   0  0  0  0  0  0  0  0  0  0  0  0
    2.5750   -2.6120   30.7398 H   0  0  0  0  0  0  0  0  0  0  0  0
    1.7183   -5.5480   32.9016 H   0  0  0  0  0  0  0  0  0  0  0  0
    1.7619   -4.5181   30.0626 H   0  0  0  0  0  0  0  0  0  0  0  0
    2.6245   -5.7823   30.8094 H   0  0  0  0  0  0  0  0  0  0  0  0
    1.0391   -7.1989   29.9549 H   0  0  0  0  0  0  0  0  0  0  0  0
    0.0056   -5.9089   29.5258 H   0  0  0  0  0  0  0  0  0  0  0  0
   -1.5109   -7.3116   35.2679 H   0  0  0  0  0  0  0  0  0  0  0  0
   -1.8790   -5.7135   35.0186 H   0  0  0  0  0  0  0  0  0  0  0  0
    0.1549   -4.1718   34.7289 H   0  0  0  0  0  0  0  0  0  0  0  0
   -1.4534   -3.8430   34.1368 H   0  0  0  0  0  0  0  0  0  0  0  0
    0.8725   -1.9256   34.0074 H   0  0  0  0  0  0  0  0  0  0  0  0
   -0.5708   -1.8407   34.9661 H   0  0  0  0  0  0  0  0  0  0  0  0
   -1.9551   -1.3679   33.0201 H   0  0  0  0  0  0  0  0  0  0  0  0
   -0.5980   -0.2608   33.0917 H   0  0  0  0  0  0  0  0  0  0  0  0
    0.6463   -1.7611   31.4763 H   0  0  0  0  0  0  0  0  0  0  0  0
   -1.8821   -2.2826   29.0720 H   0  0  0  0  0  0  0  0  0  0  0  0
   -2.1051   -0.9004   27.1609 H   0  0  0  0  0  0  0  0  0  0  0  0
   -1.2771    1.4277   27.1477 H   0  0  0  0  0  0  0  0  0  0  0  0
   -0.1141    2.3126   29.1467 H   0  0  0  0  0  0  0  0  0  0  0  0
    0.2231    0.9031   31.1302 H   0  0  0  0  0  0  0  0  0  0  0  0
    2.6150   -4.4254   34.6656 H   0  0  0  0  0  0  0  0  0  0  0  0
  1  2  1  0
  2  3  2  0
  2  4  2  0
  2  5  1  0
  5  6  1  0
  6  7  2  0
  7  8  1  0
  8  9  2  0
  9 10  1  0
 10 11  1  0
 11 12  1  0
 12 13  1  0
 13 14  1  0
 14 15  2  0
 15 16  1  0
 16 17  2  0
 17 18  1  0
 17 19  1  0
 19 20  1  0
 20 21  1  0
 21 22  1  0
 22 23  1  0
 23 24  1  0
 24 25  1  0
 25 26  2  0
 26 27  1  0
 27 28  2  0
 28 29  1  0
 29 30  2  0
 24 31  1  0
 31 32  2  0
 31 33  2  0
 10 34  2  0
 34  6  1  0
 20 11  1  0
 30 25  1  0
 19 14  1  0
 31 20  1  0
  1 35  1  0
  1 36  1  0
  1 37  1  0
  5 38  1  0
  7 39  1  0
  8 40  1  0
  9 41  1  0
 11 42  1  0
 12 43  1  0
 12 44  1  0
 13 45  1  0
 13 46  1  0
 18 47  1  0
 18 48  1  0
 21 49  1  0
 21 50  1  0
 22 51  1  0
 22 52  1  0
 23 53  1  0
 23 54  1  0
 24 55  1  0
 26 56  1  0
 27 57  1  0
 28 58  1  0
 29 59  1  0
 30 60  1  0
 34 61  1  0
M  END
>  <Energy>  (775) 
24.364705550098712

>  <compound_id>  (775) 
3718

>  <target_id>  (775) 
1

>  <reference_id>  (775) 
128

>  <inspiration_ids>  (775) 
[128, 199]

>  <energy_score>  (775) 
-88.50548997774962

>  <distance_score>  (775) 
1.2449060400612706

>  <path>  (775) 
/opt/xchem-fragalysis-2/maxwin/BulkDock/SCRATCH/505734/C3718-P128/C3718-P128.minimised.mol

>  <scratch_subdir>  (775) 
/opt/xchem-fragalysis-2/maxwin/BulkDock/SCRATCH/505734/C3718-P128

>  <fragmenstein_runtime>  (775) 
11.689770698547363

>  <fragmenstein_outcome>  (775) 
too moved

>  <fragmenstein_mode>  (775) 
expansion

>  <fragmenstein_error>  (775) 


$$$$
C3718-P199
     RDKit          3D

 61 65  0  0  0  0  0  0  0  0999 V2000
    6.8243   -3.4880   35.1594 C   0  0  0  0  0  0  0  0  0  0  0  0
    5.9476   -2.3215   36.1830 S   0  0  0  0  0  0  0  0  0  0  0  0
    6.3343   -0.9833   35.7986 O   0  0  0  0  0  0  0  0  0  0  0  0
    6.0662   -2.7733   37.5531 O   0  0  0  0  0  0  0  0  0  0  0  0
    4.3446   -2.6047   35.7594 N   0  0  0  0  0  0  0  0  0  0  0  0
    3.8861   -2.4424   34.4224 C   0  0  0  0  0  0  0  0  0  0  0  0
    4.1407   -1.2966   33.6783 C   0  0  0  0  0  0  0  0  0  0  0  0
    3.6664   -1.1899   32.3709 C   0  0  0  0  0  0  0  0  0  0  0  0
    2.8992   -2.2097   31.8102 C   0  0  0  0  0  0  0  0  0  0  0  0
    2.5475   -3.3267   32.5709 C   0  0  0  0  0  0  0  0  0  0  0  0
    1.6144   -4.4085   32.0686 C   0  0  0  0  0  0  0  0  0  0  0  0
    1.7951   -4.7725   30.5759 C   0  0  0  0  0  0  0  0  0  0  0  0
    0.8679   -5.9049   30.1078 C   0  0  0  0  0  0  0  0  0  0  0  0
    0.0275   -6.4819   31.1873 C   0  0  0  0  0  0  0  0  0  0  0  0
   -0.4772   -7.6900   31.2435 N   0  0  0  0  0  0  0  0  0  0  0  0
   -0.9450   -7.8670   32.5156 N   0  0  0  0  0  0  0  0  0  0  0  0
   -0.7572   -6.7569   33.1932 C   0  0  0  0  0  0  0  0  0  0  0  0
   -0.9213   -6.6114   34.5202 N   0  0  0  0  0  0  0  0  0  0  0  0
   -0.3012   -5.7855   32.3442 N   0  0  0  0  0  0  0  0  0  0  0  0
    0.0963   -4.3533   32.4868 C   0  0  0  0  0  0  0  0  0  0  0  0
   -0.1753   -3.6940   33.8779 C   0  0  0  0  0  0  0  0  0  0  0  0
   -0.1056   -2.1459   34.0159 C   0  0  0  0  0  0  0  0  0  0  0  0
   -0.9077   -1.2957   33.0078 C   0  0  0  0  0  0  0  0  0  0  0  0
   -0.5604   -1.6619   31.5765 C   0  0  0  0  0  0  0  0  0  0  0  0
   -1.0775   -0.7915   30.4270 C   0  0  0  0  0  0  0  0  0  0  0  0
   -2.0659   -1.2189   29.5264 C   0  0  0  0  0  0  0  0  0  0  0  0
   -2.2432   -0.5967   28.2929 C   0  0  0  0  0  0  0  0  0  0  0  0
   -1.5451    0.5559   27.9819 C   0  0  0  0  0  0  0  0  0  0  0  0
   -0.6403    1.0688   28.9015 C   0  0  0  0  0  0  0  0  0  0  0  0
   -0.3993    0.3988   30.1089 C   0  0  0  0  0  0  0  0  0  0  0  0
   -0.9780   -3.3793   31.3120 S   0  0  0  0  0  0  0  0  0  0  0  0
   -0.6442   -3.6939   29.9412 O   0  0  0  0  0  0  0  0  0  0  0  0
   -2.3547   -3.5756   31.7363 O   0  0  0  0  0  0  0  0  0  0  0  0
    3.0838   -3.4446   33.8727 C   0  0  0  0  0  0  0  0  0  0  0  0
    6.7101   -3.2089   34.1109 H   0  0  0  0  0  0  0  0  0  0  0  0
    7.8801   -3.4471   35.4369 H   0  0  0  0  0  0  0  0  0  0  0  0
    6.4325   -4.4894   35.3474 H   0  0  0  0  0  0  0  0  0  0  0  0
    3.9222   -3.3339   36.3334 H   0  0  0  0  0  0  0  0  0  0  0  0
    4.7082   -0.4675   34.0939 H   0  0  0  0  0  0  0  0  0  0  0  0
    3.9027   -0.3021   31.7865 H   0  0  0  0  0  0  0  0  0  0  0  0
    2.5720   -2.0865   30.7793 H   0  0  0  0  0  0  0  0  0  0  0  0
    2.0236   -5.2968   32.5840 H   0  0  0  0  0  0  0  0  0  0  0  0
    1.6589   -3.9011   29.9264 H   0  0  0  0  0  0  0  0  0  0  0  0
    2.8352   -5.0436   30.3769 H   0  0  0  0  0  0  0  0  0  0  0  0
    1.4605   -6.6687   29.6091 H   0  0  0  0  0  0  0  0  0  0  0  0
    0.2099   -5.5533   29.3201 H   0  0  0  0  0  0  0  0  0  0  0  0
   -1.2238   -7.4922   34.9492 H   0  0  0  0  0  0  0  0  0  0  0  0
   -1.5741   -5.8779   34.8020 H   0  0  0  0  0  0  0  0  0  0  0  0
    0.4640   -4.1504   34.6420 H   0  0  0  0  0  0  0  0  0  0  0  0
   -1.1889   -3.9311   34.1789 H   0  0  0  0  0  0  0  0  0  0  0  0
    0.9295   -1.8052   33.9956 H   0  0  0  0  0  0  0  0  0  0  0  0
   -0.4636   -1.8901   35.0221 H   0  0  0  0  0  0  0  0  0  0  0  0
   -1.9809   -1.4232   33.1941 H   0  0  0  0  0  0  0  0  0  0  0  0
   -0.6888   -0.2365   33.1900 H   0  0  0  0  0  0  0  0  0  0  0  0
    0.5194   -1.6315   31.4618 H   0  0  0  0  0  0  0  0  0  0  0  0
   -2.6666   -2.1119   29.6834 H   0  0  0  0  0  0  0  0  0  0  0  0
   -2.9214   -1.0350   27.5636 H   0  0  0  0  0  0  0  0  0  0  0  0
   -1.7062    1.0463   27.0266 H   0  0  0  0  0  0  0  0  0  0  0  0
   -0.0922    1.9782   28.6666 H   0  0  0  0  0  0  0  0  0  0  0  0
    0.3720    0.7889   30.7703 H   0  0  0  0  0  0  0  0  0  0  0  0
    2.8562   -4.3243   34.4728 H   0  0  0  0  0  0  0  0  0  0  0  0
  1  2  1  0
  2  3  2  0
  2  4  2  0
  2  5  1  0
  5  6  1  0
  6  7  2  0
  7  8  1  0
  8  9  2  0
  9 10  1  0
 10 11  1  0
 11 12  1  0
 12 13  1  0
 13 14  1  0
 14 15  2  0
 15 16  1  0
 16 17  2  0
 17 18  1  0
 17 19  1  0
 19 20  1  0
 20 21  1  0
 21 22  1  0
 22 23  1  0
 23 24  1  0
 24 25  1  0
 25 26  2  0
 26 27  1  0
 27 28  2  0
 28 29  1  0
 29 30  2  0
 24 31  1  0
 31 32  2  0
 31 33  2  0
 10 34  2  0
 34  6  1  0
 20 11  1  0
 30 25  1  0
 19 14  1  0
 31 20  1  0
  1 35  1  0
  1 36  1  0
  1 37  1  0
  5 38  1  0
  7 39  1  0
  8 40  1  0
  9 41  1  0
 11 42  1  0
 12 43  1  0
 12 44  1  0
 13 45  1  0
 13 46  1  0
 18 47  1  0
 18 48  1  0
 21 49  1  0
 21 50  1  0
 22 51  1  0
 22 52  1  0
 23 53  1  0
 23 54  1  0
 24 55  1  0
 26 56  1  0
 27 57  1  0
 28 58  1  0
 29 59  1  0
 30 60  1  0
 34 61  1  0
M  END
>  <Energy>  (776) 
27.424125207105092

>  <compound_id>  (776) 
3718

>  <target_id>  (776) 
1

>  <reference_id>  (776) 
199

>  <inspiration_ids>  (776) 
[128, 199]

>  <energy_score>  (776) 
-85.44607032074344

>  <distance_score>  (776) 
1.2036741982801549

>  <path>  (776) 
/opt/xchem-fragalysis-2/maxwin/BulkDock/SCRATCH/505734/C3718-P199/C3718-P199.minimised.mol

>  <scratch_subdir>  (776) 
/opt/xchem-fragalysis-2/maxwin/BulkDock/SCRATCH/505734/C3718-P199

>  <fragmenstein_runtime>  (776) 
11.499051570892334

>  <fragmenstein_outcome>  (776) 
too moved

>  <fragmenstein_mode>  (776) 
expansion

>  <fragmenstein_error>  (776) 


$$$$
C3719-P128
     RDKit          3D

 73 78  0  0  0  0  0  0  0  0999 V2000
    3.6257   -2.4428   38.0394 C   0  0  0  0  0  0  0  0  0  0  0  0
    4.2777   -3.7551   37.0303 S   0  0  0  0  0  0  0  0  0  0  0  0
    3.2473   -4.7469   36.8171 O   0  0  0  0  0  0  0  0  0  0  0  0
    5.5698   -4.1256   37.5674 O   0  0  0  0  0  0  0  0  0  0  0  0
    4.6122   -2.9316   35.6018 N   0  0  0  0  0  0  0  0  0  0  0  0
    3.6355   -2.8154   34.5757 C   0  0  0  0  0  0  0  0  0  0  0  0
    3.4142   -1.5483   34.0351 C   0  0  0  0  0  0  0  0  0  0  0  0
    2.5301   -1.3845   32.9687 C   0  0  0  0  0  0  0  0  0  0  0  0
    1.8823   -2.4946   32.4290 C   0  0  0  0  0  0  0  0  0  0  0  0
    2.1356   -3.7763   32.9349 C   0  0  0  0  0  0  0  0  0  0  0  0
    1.4651   -4.9463   32.3388 C   0  0  0  0  0  0  0  0  0  0  0  0
    0.5311   -5.5718   33.0953 C   0  0  0  0  0  0  0  0  0  0  0  0
   -0.2283   -6.5976   32.5413 N   0  0  0  0  0  0  0  0  0  0  0  0
   -1.1536   -7.4802   33.0708 C   0  0  0  0  0  0  0  0  0  0  0  0
   -1.3948   -7.6212   34.3968 N   0  0  0  0  0  0  0  0  0  0  0  0
   -1.6791   -8.1851   32.0887 N   0  0  0  0  0  0  0  0  0  0  0  0
   -1.0532   -7.8467   30.9140 N   0  0  0  0  0  0  0  0  0  0  0  0
   -0.1450   -6.9447   31.2071 C   0  0  0  0  0  0  0  0  0  0  0  0
    0.8901   -6.3587   30.4438 C   0  0  0  0  0  0  0  0  0  0  0  0
    1.7439   -5.4499   30.9614 C   0  0  0  0  0  0  0  0  0  0  0  0
    2.8862   -4.9883   30.2955 N   0  0  0  0  0  0  0  0  0  0  0  0
    3.5902   -5.5503   29.1534 C   0  0  0  0  0  0  0  0  0  0  0  0
    3.0001   -5.1424   27.8326 C   0  0  0  0  0  0  0  0  0  0  0  0
    2.7627   -3.6522   27.7175 C   0  0  0  0  0  0  0  0  0  0  0  0
    3.9627   -2.9123   28.1452 N   0  0  0  0  0  0  0  0  0  0  0  0
    1.5038   -3.1244   28.3391 C   0  0  0  0  0  0  0  0  0  0  0  0
    0.5012   -4.0071   28.6609 O   0  0  0  0  0  0  0  0  0  0  0  0
   -0.5140   -3.2197   29.1013 C   0  0  0  0  0  0  0  0  0  0  0  0
   -0.2669   -1.9327   29.1142 N   0  0  0  0  0  0  0  0  0  0  0  0
    1.0060   -1.8486   28.5701 C   0  0  0  0  0  0  0  0  0  0  0  0
    1.6352   -0.5564   28.2784 C   0  0  0  0  0  0  0  0  0  0  0  0
    2.7518   -0.4710   27.9423 O   0  0  0  0  0  0  0  0  0  0  0  0
    0.5665    0.5427   28.4992 N   0  0  0  0  0  0  0  0  0  0  0  0
    0.6701    1.9129   28.4473 C   0  0  0  0  0  0  0  0  0  0  0  0
   -0.3145    2.6007   29.0576 C   0  0  0  0  0  0  0  0  0  0  0  0
   -0.2617    3.9502   29.2726 N   0  0  0  0  0  0  0  0  0  0  0  0
    0.8132    4.7386   28.9471 C   0  0  0  0  0  0  0  0  0  0  0  0
    0.8645    5.9204   29.2656 O   0  0  0  0  0  0  0  0  0  0  0  0
    1.8837    4.0793   28.1585 C   0  0  0  0  0  0  0  0  0  0  0  0
    2.9225    4.8791   27.6557 C   0  0  0  0  0  0  0  0  0  0  0  0
    3.8600    4.3314   26.7888 C   0  0  0  0  0  0  0  0  0  0  0  0
    3.7315    3.0036   26.3994 C   0  0  0  0  0  0  0  0  0  0  0  0
    2.6917    2.2124   26.9085 C   0  0  0  0  0  0  0  0  0  0  0  0
    1.7796    2.7051   27.8507 C   0  0  0  0  0  0  0  0  0  0  0  0
    3.0381   -3.9324   33.9926 C   0  0  0  0  0  0  0  0  0  0  0  0
    4.3696   -1.6474   38.1126 H   0  0  0  0  0  0  0  0  0  0  0  0
    3.4205   -2.8516   39.0312 H   0  0  0  0  0  0  0  0  0  0  0  0
    2.7005   -2.0765   37.5909 H   0  0  0  0  0  0  0  0  0  0  0  0
    5.5829   -3.0463   35.3064 H   0  0  0  0  0  0  0  0  0  0  0  0
    3.9184   -0.6786   34.4495 H   0  0  0  0  0  0  0  0  0  0  0  0
    2.3411   -0.3929   32.5636 H   0  0  0  0  0  0  0  0  0  0  0  0
    1.1798   -2.3550   31.6104 H   0  0  0  0  0  0  0  0  0  0  0  0
    0.2940   -5.2926   34.1162 H   0  0  0  0  0  0  0  0  0  0  0  0
   -1.6677   -8.5877   34.6435 H   0  0  0  0  0  0  0  0  0  0  0  0
   -0.6850   -7.3246   35.0602 H   0  0  0  0  0  0  0  0  0  0  0  0
    1.0510   -6.7484   29.4584 H   0  0  0  0  0  0  0  0  0  0  0  0
    3.4790   -4.4095   30.8904 H   0  0  0  0  0  0  0  0  0  0  0  0
    3.6207   -6.6359   29.1835 H   0  0  0  0  0  0  0  0  0  0  0  0
    4.6396   -5.2356   29.2099 H   0  0  0  0  0  0  0  0  0  0  0  0
    3.6969   -5.4600   27.0443 H   0  0  0  0  0  0  0  0  0  0  0  0
    2.0903   -5.6986   27.6529 H   0  0  0  0  0  0  0  0  0  0  0  0
    2.7044   -3.4621   26.6493 H   0  0  0  0  0  0  0  0  0  0  0  0
    3.9616   -2.8643   29.1645 H   0  0  0  0  0  0  0  0  0  0  0  0
    3.8539   -1.9284   27.8594 H   0  0  0  0  0  0  0  0  0  0  0  0
   -1.4206   -3.7196   29.3960 H   0  0  0  0  0  0  0  0  0  0  0  0
   -0.3315    0.1067   28.7130 H   0  0  0  0  0  0  0  0  0  0  0  0
   -1.1790    2.1091   29.4958 H   0  0  0  0  0  0  0  0  0  0  0  0
   -0.9986    4.4133   29.7921 H   0  0  0  0  0  0  0  0  0  0  0  0
    2.9803    5.9333   27.9193 H   0  0  0  0  0  0  0  0  0  0  0  0
    4.6629    4.9468   26.3915 H   0  0  0  0  0  0  0  0  0  0  0  0
    4.4353    2.5782   25.6879 H   0  0  0  0  0  0  0  0  0  0  0  0
    2.6014    1.2084   26.5143 H   0  0  0  0  0  0  0  0  0  0  0  0
    3.2645   -4.9299   34.3605 H   0  0  0  0  0  0  0  0  0  0  0  0
  1  2  1  0
  2  3  2  0
  2  4  2  0
  2  5  1  0
  5  6  1  0
  6  7  2  0
  7  8  1  0
  8  9  2  0
  9 10  1  0
 10 11  1  0
 11 12  2  0
 12 13  1  0
 13 14  1  0
 14 15  1  0
 14 16  2  0
 16 17  1  0
 17 18  2  0
 18 19  1  0
 19 20  2  0
 20 21  1  0
 21 22  1  0
 22 23  1  0
 23 24  1  0
 24 25  1  0
 24 26  1  0
 26 27  1  0
 27 28  1  0
 28 29  2  0
 29 30  1  0
 30 31  1  0
 31 32  2  0
 31 33  1  0
 33 34  1  0
 34 35  2  0
 35 36  1  0
 36 37  1  0
 37 38  2  0
 37 39  1  0
 39 40  2  0
 40 41  1  0
 41 42  2  0
 42 43  1  0
 43 44  2  0
 10 45  2  0
 45  6  1  0
 20 11  1  0
 30 26  2  0
 44 34  1  0
 18 13  1  0
 44 39  1  0
  1 46  1  0
  1 47  1  0
  1 48  1  0
  5 49  1  0
  7 50  1  0
  8 51  1  0
  9 52  1  0
 12 53  1  0
 15 54  1  0
 15 55  1  0
 19 56  1  0
 21 57  1  0
 22 58  1  0
 22 59  1  0
 23 60  1  0
 23 61  1  0
 24 62  1  0
 25 63  1  0
 25 64  1  0
 28 65  1  0
 33 66  1  0
 35 67  1  0
 36 68  1  0
 40 69  1  0
 41 70  1  0
 42 71  1  0
 43 72  1  0
 45 73  1  0
M  END
>  <Energy>  (777) 
59.9637057675072

>  <compound_id>  (777) 
3719

>  <target_id>  (777) 
1

>  <reference_id>  (777) 
128

>  <inspiration_ids>  (777) 
[128, 200]

>  <energy_score>  (777) 
-136.13784999749487

>  <distance_score>  (777) 
2.26513181022533

>  <path>  (777) 
/opt/xchem-fragalysis-2/maxwin/BulkDock/SCRATCH/505734/C3719-P128/C3719-P128.minimised.mol

>  <scratch_subdir>  (777) 
/opt/xchem-fragalysis-2/maxwin/BulkDock/SCRATCH/505734/C3719-P128

>  <fragmenstein_runtime>  (777) 
15.372496128082275

>  <fragmenstein_outcome>  (777) 
too moved

>  <fragmenstein_mode>  (777) 
expansion

>  <fragmenstein_error>  (777) 


$$$$
C3719-P200
     RDKit          3D

 73 78  0  0  0  0  0  0  0  0999 V2000
    3.0326   -2.8059   37.7028 C   0  0  0  0  0  0  0  0  0  0  0  0
    4.2811   -3.8728   37.0100 S   0  0  0  0  0  0  0  0  0  0  0  0
    3.6772   -5.1485   36.6908 O   0  0  0  0  0  0  0  0  0  0  0  0
    5.4502   -3.7864   37.8582 O   0  0  0  0  0  0  0  0  0  0  0  0
    4.6929   -3.0629   35.5896 N   0  0  0  0  0  0  0  0  0  0  0  0
    3.7297   -2.8871   34.5555 C   0  0  0  0  0  0  0  0  0  0  0  0
    3.4791   -1.5979   34.0813 C   0  0  0  0  0  0  0  0  0  0  0  0
    2.5463   -1.3969   33.0640 C   0  0  0  0  0  0  0  0  0  0  0  0
    1.8678   -2.4868   32.5209 C   0  0  0  0  0  0  0  0  0  0  0  0
    2.1275   -3.7838   32.9747 C   0  0  0  0  0  0  0  0  0  0  0  0
    1.4239   -4.9319   32.3738 C   0  0  0  0  0  0  0  0  0  0  0  0
    0.5051   -5.5532   33.1522 C   0  0  0  0  0  0  0  0  0  0  0  0
   -0.2565   -6.5884   32.6239 N   0  0  0  0  0  0  0  0  0  0  0  0
   -1.1636   -7.4736   33.1757 C   0  0  0  0  0  0  0  0  0  0  0  0
   -1.3972   -7.5986   34.5037 N   0  0  0  0  0  0  0  0  0  0  0  0
   -1.6871   -8.2073   32.2145 N   0  0  0  0  0  0  0  0  0  0  0  0
   -1.0830   -7.8786   31.0286 N   0  0  0  0  0  0  0  0  0  0  0  0
   -0.1863   -6.9585   31.2983 C   0  0  0  0  0  0  0  0  0  0  0  0
    0.8264   -6.3733   30.5088 C   0  0  0  0  0  0  0  0  0  0  0  0
    1.6750   -5.4363   30.9865 C   0  0  0  0  0  0  0  0  0  0  0  0
    2.7758   -4.9270   30.2853 N   0  0  0  0  0  0  0  0  0  0  0  0
    3.5515   -5.4975   29.2008 C   0  0  0  0  0  0  0  0  0  0  0  0
    2.7816   -5.7184   27.9191 C   0  0  0  0  0  0  0  0  0  0  0  0
    2.1043   -4.4599   27.3706 C   0  0  0  0  0  0  0  0  0  0  0  0
    0.9206   -4.0047   28.0920 N   0  0  0  0  0  0  0  0  0  0  0  0
    3.0942   -3.3768   27.1992 C   0  0  0  0  0  0  0  0  0  0  0  0
    4.2867   -3.8571   26.7235 O   0  0  0  0  0  0  0  0  0  0  0  0
    5.0602   -2.7642   26.5364 C   0  0  0  0  0  0  0  0  0  0  0  0
    4.5002   -1.6365   26.8789 N   0  0  0  0  0  0  0  0  0  0  0  0
    3.2156   -1.9956   27.2997 C   0  0  0  0  0  0  0  0  0  0  0  0
    2.2738   -0.9334   27.7189 C   0  0  0  0  0  0  0  0  0  0  0  0
    2.4185    0.1352   27.2652 O   0  0  0  0  0  0  0  0  0  0  0  0
    1.2882   -1.4390   28.8049 N   0  0  0  0  0  0  0  0  0  0  0  0
    0.2668   -0.7901   29.4543 C   0  0  0  0  0  0  0  0  0  0  0  0
   -0.7926   -1.5197   29.8491 C   0  0  0  0  0  0  0  0  0  0  0  0
   -1.9016   -0.9676   30.4266 N   0  0  0  0  0  0  0  0  0  0  0  0
   -2.0766    0.3778   30.6331 C   0  0  0  0  0  0  0  0  0  0  0  0
   -3.1190    0.8221   31.0995 O   0  0  0  0  0  0  0  0  0  0  0  0
   -0.9198    1.2432   30.2966 C   0  0  0  0  0  0  0  0  0  0  0  0
   -1.0002    2.6106   30.6026 C   0  0  0  0  0  0  0  0  0  0  0  0
    0.1102    3.4264   30.4209 C   0  0  0  0  0  0  0  0  0  0  0  0
    1.2997    2.8682   29.9667 C   0  0  0  0  0  0  0  0  0  0  0  0
    1.3725    1.5020   29.6619 C   0  0  0  0  0  0  0  0  0  0  0  0
    0.2529    0.6646   29.7661 C   0  0  0  0  0  0  0  0  0  0  0  0
    3.0727   -3.9778   33.9859 C   0  0  0  0  0  0  0  0  0  0  0  0
    3.4461   -1.8018   37.8140 H   0  0  0  0  0  0  0  0  0  0  0  0
    2.7605   -3.2039   38.6830 H   0  0  0  0  0  0  0  0  0  0  0  0
    2.1569   -2.8036   37.0518 H   0  0  0  0  0  0  0  0  0  0  0  0
    5.3533   -2.3032   35.7572 H   0  0  0  0  0  0  0  0  0  0  0  0
    3.9980   -0.7384   34.4975 H   0  0  0  0  0  0  0  0  0  0  0  0
    2.3422   -0.3929   32.6972 H   0  0  0  0  0  0  0  0  0  0  0  0
    1.1353   -2.3205   31.7385 H   0  0  0  0  0  0  0  0  0  0  0  0
    0.2922   -5.2701   34.1770 H   0  0  0  0  0  0  0  0  0  0  0  0
   -1.6821   -8.5580   34.7455 H   0  0  0  0  0  0  0  0  0  0  0  0
   -0.6908   -7.2763   35.1588 H   0  0  0  0  0  0  0  0  0  0  0  0
    0.9308   -6.7975   29.5340 H   0  0  0  0  0  0  0  0  0  0  0  0
    3.3251   -4.2750   30.8478 H   0  0  0  0  0  0  0  0  0  0  0  0
    4.4099   -4.8393   29.0281 H   0  0  0  0  0  0  0  0  0  0  0  0
    4.0018   -6.4436   29.4930 H   0  0  0  0  0  0  0  0  0  0  0  0
    3.4969   -6.0952   27.1723 H   0  0  0  0  0  0  0  0  0  0  0  0
    2.0870   -6.5470   28.0145 H   0  0  0  0  0  0  0  0  0  0  0  0
    1.8135   -4.7392   26.3603 H   0  0  0  0  0  0  0  0  0  0  0  0
    0.4213   -3.3453   27.4820 H   0  0  0  0  0  0  0  0  0  0  0  0
    0.2688   -4.7917   28.1537 H   0  0  0  0  0  0  0  0  0  0  0  0
    6.0497   -2.9267   26.1354 H   0  0  0  0  0  0  0  0  0  0  0  0
    1.3773   -2.4543   28.9014 H   0  0  0  0  0  0  0  0  0  0  0  0
   -0.8539   -2.5905   29.6820 H   0  0  0  0  0  0  0  0  0  0  0  0
   -2.6988   -1.5447   30.6612 H   0  0  0  0  0  0  0  0  0  0  0  0
   -1.9213    3.0313   31.0006 H   0  0  0  0  0  0  0  0  0  0  0  0
    0.0559    4.4862   30.6557 H   0  0  0  0  0  0  0  0  0  0  0  0
    2.1831    3.4921   29.8482 H   0  0  0  0  0  0  0  0  0  0  0  0
    2.3400    1.1175   29.3570 H   0  0  0  0  0  0  0  0  0  0  0  0
    3.3077   -4.9878   34.3117 H   0  0  0  0  0  0  0  0  0  0  0  0
  1  2  1  0
  2  3  2  0
  2  4  2  0
  2  5  1  0
  5  6  1  0
  6  7  2  0
  7  8  1  0
  8  9  2  0
  9 10  1  0
 10 11  1  0
 11 12  2  0
 12 13  1  0
 13 14  1  0
 14 15  1  0
 14 16  2  0
 16 17  1  0
 17 18  2  0
 18 19  1  0
 19 20  2  0
 20 21  1  0
 21 22  1  0
 22 23  1  0
 23 24  1  0
 24 25  1  0
 24 26  1  0
 26 27  1  0
 27 28  1  0
 28 29  2  0
 29 30  1  0
 30 31  1  0
 31 32  2  0
 31 33  1  0
 33 34  1  0
 34 35  2  0
 35 36  1  0
 36 37  1  0
 37 38  2  0
 37 39  1  0
 39 40  2  0
 40 41  1  0
 41 42  2  0
 42 43  1  0
 43 44  2  0
 10 45  2  0
 45  6  1  0
 20 11  1  0
 30 26  2  0
 44 34  1  0
 18 13  1  0
 44 39  1  0
  1 46  1  0
  1 47  1  0
  1 48  1  0
  5 49  1  0
  7 50  1  0
  8 51  1  0
  9 52  1  0
 12 53  1  0
 15 54  1  0
 15 55  1  0
 19 56  1  0
 21 57  1  0
 22 58  1  0
 22 59  1  0
 23 60  1  0
 23 61  1  0
 24 62  1  0
 25 63  1  0
 25 64  1  0
 28 65  1  0
 33 66  1  0
 35 67  1  0
 36 68  1  0
 40 69  1  0
 41 70  1  0
 42 71  1  0
 43 72  1  0
 45 73  1  0
M  END
>  <Energy>  (778) 
73.324875329628441

>  <compound_id>  (778) 
3719

>  <target_id>  (778) 
1

>  <reference_id>  (778) 
200

>  <inspiration_ids>  (778) 
[128, 200]

>  <energy_score>  (778) 
-122.77668043537255

>  <distance_score>  (778) 
2.440138013049752

>  <path>  (778) 
/opt/xchem-fragalysis-2/maxwin/BulkDock/SCRATCH/505734/C3719-P200/C3719-P200.minimised.mol

>  <scratch_subdir>  (778) 
/opt/xchem-fragalysis-2/maxwin/BulkDock/SCRATCH/505734/C3719-P200

>  <fragmenstein_runtime>  (778) 
12.533924341201782

>  <fragmenstein_outcome>  (778) 
too moved

>  <fragmenstein_mode>  (778) 
expansion

>  <fragmenstein_error>  (778) 


$$$$
C3720-P128
     RDKit          3D

 73 78  0  0  0  0  0  0  0  0999 V2000
    4.5297    1.0515   34.3890 C   0  0  0  0  0  0  0  0  0  0  0  0
    4.3542   -0.5317   35.1817 S   0  0  0  0  0  0  0  0  0  0  0  0
    3.9641   -0.2914   36.5554 O   0  0  0  0  0  0  0  0  0  0  0  0
    5.4957   -1.3566   34.8570 O   0  0  0  0  0  0  0  0  0  0  0  0
    2.9609   -1.1296   34.4319 N   0  0  0  0  0  0  0  0  0  0  0  0
    3.0783   -2.1929   33.4802 C   0  0  0  0  0  0  0  0  0  0  0  0
    3.9195   -2.0726   32.3543 C   0  0  0  0  0  0  0  0  0  0  0  0
    4.0223   -3.0996   31.4145 C   0  0  0  0  0  0  0  0  0  0  0  0
    4.7322   -2.9693   30.2126 N   0  0  0  0  0  0  0  0  0  0  0  0
    5.4068   -4.0920   29.5217 C   0  0  0  0  0  0  0  0  0  0  0  0
    4.5392   -5.0491   28.6784 C   0  0  0  0  0  0  0  0  0  0  0  0
    3.5678   -4.4115   27.8125 N   0  0  0  0  0  0  0  0  0  0  0  0
    2.2080   -4.8623   27.9771 C   0  0  0  0  0  0  0  0  0  0  0  0
    1.2850   -3.9820   28.7395 C   0  0  0  0  0  0  0  0  0  0  0  0
    0.1305   -4.5783   29.1967 O   0  0  0  0  0  0  0  0  0  0  0  0
   -0.4794   -3.6291   29.9467 C   0  0  0  0  0  0  0  0  0  0  0  0
    0.1520   -2.4865   30.0129 N   0  0  0  0  0  0  0  0  0  0  0  0
    1.2367   -2.6617   29.1518 C   0  0  0  0  0  0  0  0  0  0  0  0
    2.1640   -1.5702   28.8408 C   0  0  0  0  0  0  0  0  0  0  0  0
    2.9874   -1.6633   28.0169 O   0  0  0  0  0  0  0  0  0  0  0  0
    1.8394   -0.4069   29.8067 N   0  0  0  0  0  0  0  0  0  0  0  0
    2.4839    0.7816   30.0145 C   0  0  0  0  0  0  0  0  0  0  0  0
    3.4816    1.1920   29.2148 C   0  0  0  0  0  0  0  0  0  0  0  0
    4.1438    2.3742   29.4103 N   0  0  0  0  0  0  0  0  0  0  0  0
    3.8633    3.2639   30.4176 C   0  0  0  0  0  0  0  0  0  0  0  0
    4.5054    4.2970   30.5646 O   0  0  0  0  0  0  0  0  0  0  0  0
    2.7562    2.8860   31.3321 C   0  0  0  0  0  0  0  0  0  0  0  0
    2.4132    3.7579   32.3753 C   0  0  0  0  0  0  0  0  0  0  0  0
    1.3996    3.4126   33.2642 C   0  0  0  0  0  0  0  0  0  0  0  0
    0.7367    2.1981   33.1144 C   0  0  0  0  0  0  0  0  0  0  0  0
    1.0722    1.3319   32.0660 C   0  0  0  0  0  0  0  0  0  0  0  0
    2.0865    1.6599   31.1482 C   0  0  0  0  0  0  0  0  0  0  0  0
    3.2057   -4.1909   31.6431 C   0  0  0  0  0  0  0  0  0  0  0  0
    2.2472   -4.3121   32.6667 C   0  0  0  0  0  0  0  0  0  0  0  0
    1.2639   -5.4356   32.5517 C   0  0  0  0  0  0  0  0  0  0  0  0
    1.0869   -6.1273   31.2639 C   0  0  0  0  0  0  0  0  0  0  0  0
    0.1146   -6.9918   30.9711 C   0  0  0  0  0  0  0  0  0  0  0  0
   -0.7512   -7.3606   31.9920 C   0  0  0  0  0  0  0  0  0  0  0  0
   -1.7618   -8.1809   31.9833 N   0  0  0  0  0  0  0  0  0  0  0  0
   -2.1347   -8.3236   33.2837 N   0  0  0  0  0  0  0  0  0  0  0  0
   -1.3648   -7.5876   34.0526 C   0  0  0  0  0  0  0  0  0  0  0  0
   -1.3260   -7.6326   35.4019 N   0  0  0  0  0  0  0  0  0  0  0  0
   -0.5055   -6.8594   33.2623 N   0  0  0  0  0  0  0  0  0  0  0  0
    0.4593   -5.8771   33.5459 C   0  0  0  0  0  0  0  0  0  0  0  0
    2.2161   -3.2953   33.6141 C   0  0  0  0  0  0  0  0  0  0  0  0
    5.3947    1.5522   34.8297 H   0  0  0  0  0  0  0  0  0  0  0  0
    3.6303    1.6389   34.5769 H   0  0  0  0  0  0  0  0  0  0  0  0
    4.6930    0.9080   33.3207 H   0  0  0  0  0  0  0  0  0  0  0  0
    2.2338   -1.2383   35.1408 H   0  0  0  0  0  0  0  0  0  0  0  0
    4.4997   -1.1675   32.2056 H   0  0  0  0  0  0  0  0  0  0  0  0
    5.3600   -2.1654   30.2564 H   0  0  0  0  0  0  0  0  0  0  0  0
    6.1383   -3.6358   28.8421 H   0  0  0  0  0  0  0  0  0  0  0  0
    5.9912   -4.6692   30.2488 H   0  0  0  0  0  0  0  0  0  0  0  0
    4.0901   -5.8177   29.3073 H   0  0  0  0  0  0  0  0  0  0  0  0
    5.2256   -5.6122   28.0328 H   0  0  0  0  0  0  0  0  0  0  0  0
    3.6398   -3.3854   27.8681 H   0  0  0  0  0  0  0  0  0  0  0  0
    2.1821   -5.8841   28.3681 H   0  0  0  0  0  0  0  0  0  0  0  0
    1.8652   -4.9508   26.9610 H   0  0  0  0  0  0  0  0  0  0  0  0
   -1.4020   -3.8942   30.4341 H   0  0  0  0  0  0  0  0  0  0  0  0
    1.1098   -0.6946   30.4499 H   0  0  0  0  0  0  0  0  0  0  0  0
    3.8229    0.6171   28.3591 H   0  0  0  0  0  0  0  0  0  0  0  0
    4.8843    2.6476   28.7748 H   0  0  0  0  0  0  0  0  0  0  0  0
    2.9333    4.7072   32.4890 H   0  0  0  0  0  0  0  0  0  0  0  0
    1.1286    4.0923   34.0684 H   0  0  0  0  0  0  0  0  0  0  0  0
   -0.0516    1.9246   33.8115 H   0  0  0  0  0  0  0  0  0  0  0  0
    0.5152    0.4030   31.9933 H   0  0  0  0  0  0  0  0  0  0  0  0
    3.2889   -4.9678   30.9145 H   0  0  0  0  0  0  0  0  0  0  0  0
    1.7633   -5.9276   30.4572 H   0  0  0  0  0  0  0  0  0  0  0  0
    0.0135   -7.4573   30.0015 H   0  0  0  0  0  0  0  0  0  0  0  0
   -0.4537   -7.3985   35.8634 H   0  0  0  0  0  0  0  0  0  0  0  0
   -1.5821   -8.5856   35.7135 H   0  0  0  0  0  0  0  0  0  0  0  0
    0.4777   -5.5048   34.5618 H   0  0  0  0  0  0  0  0  0  0  0  0
    1.4994   -3.3233   34.4285 H   0  0  0  0  0  0  0  0  0  0  0  0
  1  2  1  0
  2  3  2  0
  2  4  2  0
  2  5  1  0
  5  6  1  0
  6  7  2  0
  7  8  1  0
  8  9  1  0
  9 10  1  0
 10 11  1  0
 11 12  1  0
 12 13  1  0
 13 14  1  0
 14 15  1  0
 15 16  1  0
 16 17  2  0
 17 18  1  0
 18 19  1  0
 19 20  2  0
 19 21  1  0
 21 22  1  0
 22 23  2  0
 23 24  1  0
 24 25  1  0
 25 26  2  0
 25 27  1  0
 27 28  2  0
 28 29  1  0
 29 30  2  0
 30 31  1  0
 31 32  2  0
  8 33  2  0
 33 34  1  0
 34 35  1  0
 35 36  1  0
 36 37  2  0
 37 38  1  0
 38 39  2  0
 39 40  1  0
 40 41  2  0
 41 42  1  0
 41 43  1  0
 43 44  1  0
 34 45  2  0
 45  6  1  0
 18 14  2  0
 32 22  1  0
 44 35  2  0
 32 27  1  0
 43 38  1  0
  1 46  1  0
  1 47  1  0
  1 48  1  0
  5 49  1  0
  7 50  1  0
  9 51  1  0
 10 52  1  0
 10 53  1  0
 11 54  1  0
 11 55  1  0
 12 56  1  0
 13 57  1  0
 13 58  1  0
 16 59  1  0
 21 60  1  0
 23 61  1  0
 24 62  1  0
 28 63  1  0
 29 64  1  0
 30 65  1  0
 31 66  1  0
 33 67  1  0
 36 68  1  0
 37 69  1  0
 42 70  1  0
 42 71  1  0
 44 72  1  0
 45 73  1  0
M  END
>  <Energy>  (779) 
92.778377975327288

>  <compound_id>  (779) 
3720

>  <target_id>  (779) 
1

>  <reference_id>  (779) 
128

>  <inspiration_ids>  (779) 
[128, 201]

>  <energy_score>  (779) 
-110.76020231680907

>  <distance_score>  (779) 
1.761445842339512

>  <path>  (779) 
/opt/xchem-fragalysis-2/maxwin/BulkDock/SCRATCH/505734/C3720-P128/C3720-P128.minimised.mol

>  <scratch_subdir>  (779) 
/opt/xchem-fragalysis-2/maxwin/BulkDock/SCRATCH/505734/C3720-P128

>  <fragmenstein_runtime>  (779) 
9.476266860961914

>  <fragmenstein_outcome>  (779) 
too moved

>  <fragmenstein_mode>  (779) 
expansion

>  <fragmenstein_error>  (779) 


$$$$
C3720-P201
     RDKit          3D

 73 78  0  0  0  0  0  0  0  0999 V2000
    4.6260   -1.3178   35.8050 C   0  0  0  0  0  0  0  0  0  0  0  0
    2.8696   -1.0559   35.6617 S   0  0  0  0  0  0  0  0  0  0  0  0
    2.5891    0.2821   36.1365 O   0  0  0  0  0  0  0  0  0  0  0  0
    2.1861   -2.2050   36.2133 O   0  0  0  0  0  0  0  0  0  0  0  0
    2.6641   -1.0065   33.9901 N   0  0  0  0  0  0  0  0  0  0  0  0
    2.8755   -2.1803   33.2091 C   0  0  0  0  0  0  0  0  0  0  0  0
    3.7609   -2.1119   32.1158 C   0  0  0  0  0  0  0  0  0  0  0  0
    3.9897   -3.2238   31.2968 C   0  0  0  0  0  0  0  0  0  0  0  0
    4.7825   -3.1530   30.1589 N   0  0  0  0  0  0  0  0  0  0  0  0
    5.2485   -4.2602   29.3044 C   0  0  0  0  0  0  0  0  0  0  0  0
    4.1873   -5.0896   28.5525 C   0  0  0  0  0  0  0  0  0  0  0  0
    3.2651   -4.3330   27.7283 N   0  0  0  0  0  0  0  0  0  0  0  0
    1.8692   -4.6987   27.8593 C   0  0  0  0  0  0  0  0  0  0  0  0
    1.0766   -3.9413   28.8612 C   0  0  0  0  0  0  0  0  0  0  0  0
    0.0259   -4.6136   29.4409 O   0  0  0  0  0  0  0  0  0  0  0  0
   -0.4625   -3.7523   30.3701 C   0  0  0  0  0  0  0  0  0  0  0  0
    0.1099   -2.5774   30.3912 N   0  0  0  0  0  0  0  0  0  0  0  0
    1.0720   -2.6621   29.3880 C   0  0  0  0  0  0  0  0  0  0  0  0
    1.9462   -1.5336   29.0583 C   0  0  0  0  0  0  0  0  0  0  0  0
    2.7932   -1.6141   28.2572 O   0  0  0  0  0  0  0  0  0  0  0  0
    1.5538   -0.3619   29.9873 N   0  0  0  0  0  0  0  0  0  0  0  0
    2.1475    0.8550   30.1821 C   0  0  0  0  0  0  0  0  0  0  0  0
    3.0900    1.3183   29.3449 C   0  0  0  0  0  0  0  0  0  0  0  0
    3.7131    2.5226   29.5313 N   0  0  0  0  0  0  0  0  0  0  0  0
    3.4546    3.3782   30.5742 C   0  0  0  0  0  0  0  0  0  0  0  0
    4.0616    4.4344   30.7044 O   0  0  0  0  0  0  0  0  0  0  0  0
    2.4211    2.9317   31.5425 C   0  0  0  0  0  0  0  0  0  0  0  0
    2.1342    3.7448   32.6475 C   0  0  0  0  0  0  0  0  0  0  0  0
    1.1991    3.3288   33.5899 C   0  0  0  0  0  0  0  0  0  0  0  0
    0.5485    2.1103   33.4237 C   0  0  0  0  0  0  0  0  0  0  0  0
    0.8237    1.3047   32.3120 C   0  0  0  0  0  0  0  0  0  0  0  0
    1.7722    1.6950   31.3506 C   0  0  0  0  0  0  0  0  0  0  0  0
    3.3920   -4.3985   31.7130 C   0  0  0  0  0  0  0  0  0  0  0  0
    2.3375   -4.4552   32.6424 C   0  0  0  0  0  0  0  0  0  0  0  0
    1.3910   -5.6037   32.5120 C   0  0  0  0  0  0  0  0  0  0  0  0
    1.2697   -6.2849   31.2095 C   0  0  0  0  0  0  0  0  0  0  0  0
    0.3119   -7.1568   30.8846 C   0  0  0  0  0  0  0  0  0  0  0  0
   -0.6100   -7.5112   31.8659 C   0  0  0  0  0  0  0  0  0  0  0  0
   -1.6379   -8.3109   31.8105 N   0  0  0  0  0  0  0  0  0  0  0  0
   -2.0848   -8.4342   33.0896 N   0  0  0  0  0  0  0  0  0  0  0  0
   -1.3468   -7.6986   33.8925 C   0  0  0  0  0  0  0  0  0  0  0  0
   -1.3928   -7.7144   35.2433 N   0  0  0  0  0  0  0  0  0  0  0  0
   -0.4290   -6.9972   33.1433 N   0  0  0  0  0  0  0  0  0  0  0  0
    0.5311   -6.0237   33.4678 C   0  0  0  0  0  0  0  0  0  0  0  0
    2.1165   -3.3342   33.4318 C   0  0  0  0  0  0  0  0  0  0  0  0
    4.8833   -1.2845   36.8660 H   0  0  0  0  0  0  0  0  0  0  0  0
    5.1481   -0.5201   35.2732 H   0  0  0  0  0  0  0  0  0  0  0  0
    4.8797   -2.2972   35.3960 H   0  0  0  0  0  0  0  0  0  0  0  0
    2.9522   -0.1110   33.5922 H   0  0  0  0  0  0  0  0  0  0  0  0
    4.2667   -1.1775   31.8853 H   0  0  0  0  0  0  0  0  0  0  0  0
    4.6957   -2.2698   29.6530 H   0  0  0  0  0  0  0  0  0  0  0  0
    5.9332   -3.8257   28.5653 H   0  0  0  0  0  0  0  0  0  0  0  0
    5.8582   -4.9380   29.9145 H   0  0  0  0  0  0  0  0  0  0  0  0
    3.6697   -5.7526   29.2426 H   0  0  0  0  0  0  0  0  0  0  0  0
    4.7294   -5.7709   27.8842 H   0  0  0  0  0  0  0  0  0  0  0  0
    3.3888   -3.3189   27.8400 H   0  0  0  0  0  0  0  0  0  0  0  0
    1.4397   -4.5032   26.8823 H   0  0  0  0  0  0  0  0  0  0  0  0
    1.7919   -5.7760   28.0325 H   0  0  0  0  0  0  0  0  0  0  0  0
   -1.2436   -4.1112   31.0221 H   0  0  0  0  0  0  0  0  0  0  0  0
    0.8178   -0.6633   30.6209 H   0  0  0  0  0  0  0  0  0  0  0  0
    3.4101    0.7741   28.4617 H   0  0  0  0  0  0  0  0  0  0  0  0
    4.4077    2.8429   28.8665 H   0  0  0  0  0  0  0  0  0  0  0  0
    2.6438    4.6977   32.7749 H   0  0  0  0  0  0  0  0  0  0  0  0
    0.9811    3.9520   34.4538 H   0  0  0  0  0  0  0  0  0  0  0  0
   -0.1742    1.7789   34.1669 H   0  0  0  0  0  0  0  0  0  0  0  0
    0.2840    0.3647   32.2409 H   0  0  0  0  0  0  0  0  0  0  0  0
    3.6758   -5.3027   31.2043 H   0  0  0  0  0  0  0  0  0  0  0  0
    1.9534   -6.0270   30.4199 H   0  0  0  0  0  0  0  0  0  0  0  0
    0.2418   -7.6151   29.9086 H   0  0  0  0  0  0  0  0  0  0  0  0
   -0.5585   -7.4508   35.7565 H   0  0  0  0  0  0  0  0  0  0  0  0
   -1.6626   -8.6622   35.5581 H   0  0  0  0  0  0  0  0  0  0  0  0
    0.4939   -5.6255   34.4746 H   0  0  0  0  0  0  0  0  0  0  0  0
    1.3077   -3.3165   34.1571 H   0  0  0  0  0  0  0  0  0  0  0  0
  1  2  1  0
  2  3  2  0
  2  4  2  0
  2  5  1  0
  5  6  1  0
  6  7  2  0
  7  8  1  0
  8  9  1  0
  9 10  1  0
 10 11  1  0
 11 12  1  0
 12 13  1  0
 13 14  1  0
 14 15  1  0
 15 16  1  0
 16 17  2  0
 17 18  1  0
 18 19  1  0
 19 20  2  0
 19 21  1  0
 21 22  1  0
 22 23  2  0
 23 24  1  0
 24 25  1  0
 25 26  2  0
 25 27  1  0
 27 28  2  0
 28 29  1  0
 29 30  2  0
 30 31  1  0
 31 32  2  0
  8 33  2  0
 33 34  1  0
 34 35  1  0
 35 36  1  0
 36 37  2  0
 37 38  1  0
 38 39  2  0
 39 40  1  0
 40 41  2  0
 41 42  1  0
 41 43  1  0
 43 44  1  0
 34 45  2  0
 45  6  1  0
 18 14  2  0
 32 22  1  0
 44 35  2  0
 32 27  1  0
 43 38  1  0
  1 46  1  0
  1 47  1  0
  1 48  1  0
  5 49  1  0
  7 50  1  0
  9 51  1  0
 10 52  1  0
 10 53  1  0
 11 54  1  0
 11 55  1  0
 12 56  1  0
 13 57  1  0
 13 58  1  0
 16 59  1  0
 21 60  1  0
 23 61  1  0
 24 62  1  0
 28 63  1  0
 29 64  1  0
 30 65  1  0
 31 66  1  0
 33 67  1  0
 36 68  1  0
 37 69  1  0
 42 70  1  0
 42 71  1  0
 44 72  1  0
 45 73  1  0
M  END
>  <Energy>  (780) 
88.150094620679596

>  <compound_id>  (780) 
3720

>  <target_id>  (780) 
1

>  <reference_id>  (780) 
201

>  <inspiration_ids>  (780) 
[128, 201]

>  <energy_score>  (780) 
-115.38848567145777

>  <distance_score>  (780) 
1.7426843731242663

>  <path>  (780) 
/opt/xchem-fragalysis-2/maxwin/BulkDock/SCRATCH/505734/C3720-P201/C3720-P201.minimised.mol

>  <scratch_subdir>  (780) 
/opt/xchem-fragalysis-2/maxwin/BulkDock/SCRATCH/505734/C3720-P201

>  <fragmenstein_runtime>  (780) 
8.163557052612305

>  <fragmenstein_outcome>  (780) 
too moved

>  <fragmenstein_mode>  (780) 
expansion

>  <fragmenstein_error>  (780) 


$$$$
C3721-P129
     RDKit          3D

 47 50  0  0  0  0  0  0  0  0999 V2000
    2.5986   -4.0579   37.4776 C   0  0  0  0  0  0  0  0  0  0  0  0
    4.1624   -3.7990   36.6691 S   0  0  0  0  0  0  0  0  0  0  0  0
    5.1232   -3.4462   37.6920 O   0  0  0  0  0  0  0  0  0  0  0  0
    4.4033   -4.8939   35.7552 O   0  0  0  0  0  0  0  0  0  0  0  0
    3.8548   -2.3724   35.8338 N   0  0  0  0  0  0  0  0  0  0  0  0
    3.5613   -2.3501   34.4371 C   0  0  0  0  0  0  0  0  0  0  0  0
    3.9457   -1.2163   33.7168 C   0  0  0  0  0  0  0  0  0  0  0  0
    3.6480   -1.1064   32.3593 C   0  0  0  0  0  0  0  0  0  0  0  0
    2.9492   -2.1257   31.7170 C   0  0  0  0  0  0  0  0  0  0  0  0
    2.5104   -3.2444   32.4339 C   0  0  0  0  0  0  0  0  0  0  0  0
    1.8056   -4.3685   31.7798 C   0  0  0  0  0  0  0  0  0  0  0  0
    2.3102   -4.9873   30.5447 C   0  0  0  0  0  0  0  0  0  0  0  0
    1.6358   -5.9676   29.9203 C   0  0  0  0  0  0  0  0  0  0  0  0
    0.5194   -6.5534   30.5692 C   0  0  0  0  0  0  0  0  0  0  0  0
   -0.2048   -7.6220   30.3234 N   0  0  0  0  0  0  0  0  0  0  0  0
   -1.0515   -7.7980   31.3959 N   0  0  0  0  0  0  0  0  0  0  0  0
   -0.8280   -6.8351   32.2669 C   0  0  0  0  0  0  0  0  0  0  0  0
   -1.3209   -6.7414   33.5201 N   0  0  0  0  0  0  0  0  0  0  0  0
    0.0689   -5.9340   31.7232 N   0  0  0  0  0  0  0  0  0  0  0  0
    0.5107   -4.6432   32.1242 C   0  0  0  0  0  0  0  0  0  0  0  0
   -0.3798   -3.6992   31.6274 N   0  0  0  0  0  0  0  0  0  0  0  0
   -0.2881   -2.8024   30.4079 C   0  0  0  0  0  0  0  0  0  0  0  0
    0.5959   -2.6492   29.6538 O   0  0  0  0  0  0  0  0  0  0  0  0
   -1.6650   -2.2563   30.3878 N   0  0  0  0  0  0  0  0  0  0  0  0
   -2.3081   -1.5087   29.4517 C   0  0  0  0  0  0  0  0  0  0  0  0
   -3.6466   -1.1174   29.3319 C   0  0  0  0  0  0  0  0  0  0  0  0
   -3.9039   -0.5575   28.1446 N   0  0  0  0  0  0  0  0  0  0  0  0
   -2.7281   -0.6531   27.4898 N   0  0  0  0  0  0  0  0  0  0  0  0
   -1.7204   -1.1173   28.2767 C   0  0  0  0  0  0  0  0  0  0  0  0
    2.7992   -3.3328   33.8035 C   0  0  0  0  0  0  0  0  0  0  0  0
    1.8254   -4.2226   36.7260 H   0  0  0  0  0  0  0  0  0  0  0  0
    2.6913   -4.9427   38.1114 H   0  0  0  0  0  0  0  0  0  0  0  0
    2.3680   -3.1858   38.0924 H   0  0  0  0  0  0  0  0  0  0  0  0
    4.4581   -1.6251   36.1825 H   0  0  0  0  0  0  0  0  0  0  0  0
    4.4941   -0.4103   34.1975 H   0  0  0  0  0  0  0  0  0  0  0  0
    3.9656   -0.2302   31.7990 H   0  0  0  0  0  0  0  0  0  0  0  0
    2.7448   -2.0283   30.6527 H   0  0  0  0  0  0  0  0  0  0  0  0
    3.1892   -4.5465   30.0816 H   0  0  0  0  0  0  0  0  0  0  0  0
    1.9792   -6.3583   28.9724 H   0  0  0  0  0  0  0  0  0  0  0  0
   -0.8138   -6.2237   34.2311 H   0  0  0  0  0  0  0  0  0  0  0  0
   -1.6706   -7.6297   33.8915 H   0  0  0  0  0  0  0  0  0  0  0  0
   -1.2491   -3.5302   32.1006 H   0  0  0  0  0  0  0  0  0  0  0  0
   -2.1877   -2.6523   31.1405 H   0  0  0  0  0  0  0  0  0  0  0  0
   -4.4610   -1.2388   30.0321 H   0  0  0  0  0  0  0  0  0  0  0  0
   -2.6779   -0.4003   26.5063 H   0  0  0  0  0  0  0  0  0  0  0  0
   -0.7214   -1.2316   27.8813 H   0  0  0  0  0  0  0  0  0  0  0  0
    2.4522   -4.2005   34.3543 H   0  0  0  0  0  0  0  0  0  0  0  0
  1  2  1  0
  2  3  2  0
  2  4  2  0
  2  5  1  0
  5  6  1  0
  6  7  2  0
  7  8  1  0
  8  9  2  0
  9 10  1  0
 10 11  1  0
 11 12  1  0
 12 13  2  0
 13 14  1  0
 14 15  2  0
 15 16  1  0
 16 17  2  0
 17 18  1  0
 17 19  1  0
 19 20  1  0
 20 21  1  0
 21 22  1  0
 22 23  2  0
 22 24  1  0
 24 25  1  0
 25 26  1  0
 26 27  2  0
 27 28  1  0
 28 29  1  0
 10 30  2  0
 30  6  1  0
 20 11  2  0
 29 25  2  0
 19 14  1  0
  1 31  1  0
  1 32  1  0
  1 33  1  0
  5 34  1  0
  7 35  1  0
  8 36  1  0
  9 37  1  0
 12 38  1  0
 13 39  1  0
 18 40  1  0
 18 41  1  0
 21 42  1  0
 24 43  1  0
 26 44  1  0
 28 45  1  0
 29 46  1  0
 30 47  1  0
M  END
>  <Energy>  (781) 
56.742101226169943

>  <compound_id>  (781) 
3721

>  <target_id>  (781) 
1

>  <reference_id>  (781) 
129

>  <inspiration_ids>  (781) 
[129, 40]

>  <energy_score>  (781) 
-24.22409764307241

>  <distance_score>  (781) 
3.228646491237749

>  <path>  (781) 
/opt/xchem-fragalysis-2/maxwin/BulkDock/SCRATCH/505734/C3721-P129/C3721-P129.minimised.mol

>  <scratch_subdir>  (781) 
/opt/xchem-fragalysis-2/maxwin/BulkDock/SCRATCH/505734/C3721-P129

>  <fragmenstein_runtime>  (781) 
7.466614007949829

>  <fragmenstein_outcome>  (781) 
too moved

>  <fragmenstein_mode>  (781) 
expansion

>  <fragmenstein_error>  (781) 


$$$$
C3721-P40
     RDKit          3D

 47 50  0  0  0  0  0  0  0  0999 V2000
    3.5227   -2.7278   37.2279 C   0  0  0  0  0  0  0  0  0  0  0  0
    4.8802   -3.5398   36.4029 S   0  0  0  0  0  0  0  0  0  0  0  0
    6.0916   -3.1910   37.1133 O   0  0  0  0  0  0  0  0  0  0  0  0
    4.5180   -4.9233   36.1806 O   0  0  0  0  0  0  0  0  0  0  0  0
    4.9652   -2.7277   34.9295 N   0  0  0  0  0  0  0  0  0  0  0  0
    3.8081   -2.6196   34.1053 C   0  0  0  0  0  0  0  0  0  0  0  0
    3.4333   -1.3614   33.6311 C   0  0  0  0  0  0  0  0  0  0  0  0
    2.2501   -1.2112   32.9039 C   0  0  0  0  0  0  0  0  0  0  0  0
    1.4358   -2.3173   32.6572 C   0  0  0  0  0  0  0  0  0  0  0  0
    1.8369   -3.5870   33.0872 C   0  0  0  0  0  0  0  0  0  0  0  0
    0.9501   -4.7534   32.9676 C   0  0  0  0  0  0  0  0  0  0  0  0
    0.2468   -5.1732   34.2038 C   0  0  0  0  0  0  0  0  0  0  0  0
   -0.5597   -6.2450   34.2779 C   0  0  0  0  0  0  0  0  0  0  0  0
   -0.8146   -6.9834   33.1081 C   0  0  0  0  0  0  0  0  0  0  0  0
   -1.5640   -8.0300   32.8445 N   0  0  0  0  0  0  0  0  0  0  0  0
   -1.5147   -8.2716   31.4944 N   0  0  0  0  0  0  0  0  0  0  0  0
   -0.7585   -7.3466   30.9671 C   0  0  0  0  0  0  0  0  0  0  0  0
   -0.6172   -7.0582   29.6447 N   0  0  0  0  0  0  0  0  0  0  0  0
   -0.2024   -6.5505   31.9556 N   0  0  0  0  0  0  0  0  0  0  0  0
    0.7380   -5.4894   31.8476 C   0  0  0  0  0  0  0  0  0  0  0  0
    1.3094   -5.4267   30.5889 N   0  0  0  0  0  0  0  0  0  0  0  0
    2.4078   -4.5681   30.0554 C   0  0  0  0  0  0  0  0  0  0  0  0
    2.9947   -3.6864   30.5601 O   0  0  0  0  0  0  0  0  0  0  0  0
    2.5376   -5.1569   28.6875 N   0  0  0  0  0  0  0  0  0  0  0  0
    3.4228   -4.8963   27.6919 C   0  0  0  0  0  0  0  0  0  0  0  0
    4.3408   -3.8437   27.5551 C   0  0  0  0  0  0  0  0  0  0  0  0
    5.0417   -3.9430   26.4230 N   0  0  0  0  0  0  0  0  0  0  0  0
    4.6157   -5.0946   25.8804 N   0  0  0  0  0  0  0  0  0  0  0  0
    3.5964   -5.6788   26.5797 C   0  0  0  0  0  0  0  0  0  0  0  0
    3.0374   -3.7342   33.7904 C   0  0  0  0  0  0  0  0  0  0  0  0
    3.4715   -3.1204   38.2462 H   0  0  0  0  0  0  0  0  0  0  0  0
    3.7179   -1.6542   37.2582 H   0  0  0  0  0  0  0  0  0  0  0  0
    2.5903   -2.9474   36.7065 H   0  0  0  0  0  0  0  0  0  0  0  0
    5.5968   -1.9274   34.9613 H   0  0  0  0  0  0  0  0  0  0  0  0
    4.0413   -0.4844   33.8340 H   0  0  0  0  0  0  0  0  0  0  0  0
    1.9546   -0.2294   32.5420 H   0  0  0  0  0  0  0  0  0  0  0  0
    0.5004   -2.1830   32.1202 H   0  0  0  0  0  0  0  0  0  0  0  0
    0.4222   -4.5825   35.1015 H   0  0  0  0  0  0  0  0  0  0  0  0
   -1.0424   -6.5342   35.2048 H   0  0  0  0  0  0  0  0  0  0  0  0
   -0.7868   -6.0605   29.4814 H   0  0  0  0  0  0  0  0  0  0  0  0
   -1.3044   -7.5736   29.0949 H   0  0  0  0  0  0  0  0  0  0  0  0
    1.0908   -6.1418   29.9189 H   0  0  0  0  0  0  0  0  0  0  0  0
    1.9393   -5.9515   28.6113 H   0  0  0  0  0  0  0  0  0  0  0  0
    4.5223   -3.0086   28.2214 H   0  0  0  0  0  0  0  0  0  0  0  0
    5.0552   -5.4156   25.0210 H   0  0  0  0  0  0  0  0  0  0  0  0
    3.1530   -6.5993   26.2328 H   0  0  0  0  0  0  0  0  0  0  0  0
    3.3469   -4.7252   34.1096 H   0  0  0  0  0  0  0  0  0  0  0  0
  1  2  1  0
  2  3  2  0
  2  4  2  0
  2  5  1  0
  5  6  1  0
  6  7  2  0
  7  8  1  0
  8  9  2  0
  9 10  1  0
 10 11  1  0
 11 12  1  0
 12 13  2  0
 13 14  1  0
 14 15  2  0
 15 16  1  0
 16 17  2  0
 17 18  1  0
 17 19  1  0
 19 20  1  0
 20 21  1  0
 21 22  1  0
 22 23  2  0
 22 24  1  0
 24 25  1  0
 25 26  1  0
 26 27  2  0
 27 28  1  0
 28 29  1  0
 10 30  2  0
 30  6  1  0
 20 11  2  0
 29 25  2  0
 19 14  1  0
  1 31  1  0
  1 32  1  0
  1 33  1  0
  5 34  1  0
  7 35  1  0
  8 36  1  0
  9 37  1  0
 12 38  1  0
 13 39  1  0
 18 40  1  0
 18 41  1  0
 21 42  1  0
 24 43  1  0
 26 44  1  0
 28 45  1  0
 29 46  1  0
 30 47  1  0
M  END
>  <Energy>  (782) 
-1.3197500858778173

>  <compound_id>  (782) 
3721

>  <target_id>  (782) 
1

>  <reference_id>  (782) 
40

>  <inspiration_ids>  (782) 
[129, 40]

>  <energy_score>  (782) 
-82.28594895512109

>  <distance_score>  (782) 
2.669387221238979

>  <path>  (782) 
/opt/xchem-fragalysis-2/maxwin/BulkDock/SCRATCH/505734/C3721-P40/C3721-P40.minimised.mol

>  <scratch_subdir>  (782) 
/opt/xchem-fragalysis-2/maxwin/BulkDock/SCRATCH/505734/C3721-P40

>  <fragmenstein_runtime>  (782) 
7.829871654510498

>  <fragmenstein_outcome>  (782) 
too moved

>  <fragmenstein_mode>  (782) 
expansion

>  <fragmenstein_error>  (782) 


$$$$
C3722-P129
     RDKit          3D

 61 66  0  0  0  0  0  0  0  0999 V2000
    3.5705   -4.9601   28.2908 C   0  0  0  0  0  0  0  0  0  0  0  0
    3.3926   -3.6862   28.6692 C   0  0  0  0  0  0  0  0  0  0  0  0
    3.5229   -3.0881   30.0469 C   0  0  0  0  0  0  0  0  0  0  0  0
    3.7024   -4.0454   31.1269 N   0  0  0  0  0  0  0  0  0  0  0  0
    4.9149   -4.3051   31.7499 C   0  0  0  0  0  0  0  0  0  0  0  0
    6.2210   -3.7437   31.4317 C   0  0  0  0  0  0  0  0  0  0  0  0
    6.9939   -3.1629   32.4403 C   0  0  0  0  0  0  0  0  0  0  0  0
    8.2450   -2.6304   32.1375 C   0  0  0  0  0  0  0  0  0  0  0  0
    8.6885   -2.6997   30.8269 C   0  0  0  0  0  0  0  0  0  0  0  0
    7.9800   -3.2638   29.8238 N   0  0  0  0  0  0  0  0  0  0  0  0
    6.7764   -3.7900   30.1573 C   0  0  0  0  0  0  0  0  0  0  0  0
    4.6899   -5.1322   32.7487 N   0  0  0  0  0  0  0  0  0  0  0  0
    3.3589   -5.4504   32.7763 N   0  0  0  0  0  0  0  0  0  0  0  0
    2.7314   -4.6896   31.9000 C   0  0  0  0  0  0  0  0  0  0  0  0
    1.2777   -4.2201   32.1705 C   0  0  0  0  0  0  0  0  0  0  0  0
    1.5380   -2.8506   32.8479 C   0  0  0  0  0  0  0  0  0  0  0  0
    1.2098   -1.6185   32.2955 C   0  0  0  0  0  0  0  0  0  0  0  0
    1.8399   -0.4697   32.7840 C   0  0  0  0  0  0  0  0  0  0  0  0
    2.7675   -0.5355   33.8395 C   0  0  0  0  0  0  0  0  0  0  0  0
    3.0453   -1.7438   34.4667 C   0  0  0  0  0  0  0  0  0  0  0  0
    4.0387   -1.8058   35.4864 N   0  0  0  0  0  0  0  0  0  0  0  0
    4.3280   -3.1271   36.4875 S   0  0  0  0  0  0  0  0  0  0  0  0
    2.7810   -3.3323   37.3479 C   0  0  0  0  0  0  0  0  0  0  0  0
    5.2934   -2.6584   37.4590 O   0  0  0  0  0  0  0  0  0  0  0  0
    4.5902   -4.3155   35.7121 O   0  0  0  0  0  0  0  0  0  0  0  0
    2.4271   -2.8670   33.9629 C   0  0  0  0  0  0  0  0  0  0  0  0
    0.4618   -4.1933   30.8449 C   0  0  0  0  0  0  0  0  0  0  0  0
    0.3245   -5.5893   30.2083 C   0  0  0  0  0  0  0  0  0  0  0  0
   -0.2040   -6.5652   31.1817 C   0  0  0  0  0  0  0  0  0  0  0  0
   -0.8953   -7.6679   30.9896 N   0  0  0  0  0  0  0  0  0  0  0  0
   -1.2855   -8.1300   32.2339 N   0  0  0  0  0  0  0  0  0  0  0  0
   -0.8247   -7.2950   33.1439 C   0  0  0  0  0  0  0  0  0  0  0  0
   -0.9490   -7.1960   34.5530 C   0  0  0  0  0  0  0  0  0  0  0  0
   -0.4539   -6.1072   35.1758 C   0  0  0  0  0  0  0  0  0  0  0  0
    0.2324   -5.0519   34.4492 C   0  0  0  0  0  0  0  0  0  0  0  0
    0.4848   -5.1865   33.1263 C   0  0  0  0  0  0  0  0  0  0  0  0
   -0.0982   -6.3053   32.5174 N   0  0  0  0  0  0  0  0  0  0  0  0
    3.8538   -5.7446   28.9845 H   0  0  0  0  0  0  0  0  0  0  0  0
    3.4581   -5.2458   27.2477 H   0  0  0  0  0  0  0  0  0  0  0  0
    3.1299   -2.9634   27.8955 H   0  0  0  0  0  0  0  0  0  0  0  0
    2.6457   -2.4817   30.2588 H   0  0  0  0  0  0  0  0  0  0  0  0
    4.3606   -2.3836   30.0571 H   0  0  0  0  0  0  0  0  0  0  0  0
    6.6264   -3.1358   33.4657 H   0  0  0  0  0  0  0  0  0  0  0  0
    8.8604   -2.1815   32.9096 H   0  0  0  0  0  0  0  0  0  0  0  0
    9.6581   -2.2992   30.5437 H   0  0  0  0  0  0  0  0  0  0  0  0
    6.2659   -4.2757   29.3321 H   0  0  0  0  0  0  0  0  0  0  0  0
    0.5355   -1.5255   31.4482 H   0  0  0  0  0  0  0  0  0  0  0  0
    1.6216    0.4960   32.3297 H   0  0  0  0  0  0  0  0  0  0  0  0
    3.2548    0.3803   34.1650 H   0  0  0  0  0  0  0  0  0  0  0  0
    4.3594   -0.9286   35.8955 H   0  0  0  0  0  0  0  0  0  0  0  0
    2.5077   -2.3830   37.8126 H   0  0  0  0  0  0  0  0  0  0  0  0
    2.0090   -3.6694   36.6618 H   0  0  0  0  0  0  0  0  0  0  0  0
    2.9315   -4.0879   38.1227 H   0  0  0  0  0  0  0  0  0  0  0  0
    2.7135   -3.8321   34.3723 H   0  0  0  0  0  0  0  0  0  0  0  0
    0.8743   -3.5170   30.0947 H   0  0  0  0  0  0  0  0  0  0  0  0
   -0.5454   -3.8010   31.0546 H   0  0  0  0  0  0  0  0  0  0  0  0
   -0.3635   -5.5006   29.3685 H   0  0  0  0  0  0  0  0  0  0  0  0
    1.2839   -5.9422   29.8209 H   0  0  0  0  0  0  0  0  0  0  0  0
   -1.4339   -7.9999   35.0971 H   0  0  0  0  0  0  0  0  0  0  0  0
   -0.5376   -6.0100   36.2550 H   0  0  0  0  0  0  0  0  0  0  0  0
    0.5332   -4.1993   35.0407 H   0  0  0  0  0  0  0  0  0  0  0  0
  1  2  2  0
  2  3  1  0
  3  4  1  0
  4  5  1  0
  5  6  1  0
  6  7  2  0
  7  8  1  0
  8  9  2  0
  9 10  1  0
 10 11  2  0
  5 12  2  0
 12 13  1  0
 13 14  2  0
 14 15  1  0
 15 16  1  0
 16 17  2  0
 17 18  1  0
 18 19  2  0
 19 20  1  0
 20 21  1  0
 21 22  1  0
 22 23  1  0
 22 24  2  0
 22 25  2  0
 20 26  2  0
 15 27  1  0
 27 28  1  0
 28 29  1  0
 29 30  2  0
 30 31  1  0
 31 32  2  0
 32 33  1  0
 33 34  2  0
 34 35  1  0
 35 36  2  0
 36 37  1  0
 14  4  1  0
 36 15  1  0
 11  6  1  0
 26 16  1  0
 37 29  1  0
 37 32  1  0
  1 38  1  0
  1 39  1  0
  2 40  1  0
  3 41  1  0
  3 42  1  0
  7 43  1  0
  8 44  1  0
  9 45  1  0
 11 46  1  0
 17 47  1  0
 18 48  1  0
 19 49  1  0
 21 50  1  0
 23 51  1  0
 23 52  1  0
 23 53  1  0
 26 54  1  0
 27 55  1  0
 27 56  1  0
 28 57  1  0
 28 58  1  0
 33 59  1  0
 34 60  1  0
 35 61  1  0
M  END
>  <Energy>  (783) 
76.377944043859202

>  <compound_id>  (783) 
3722

>  <target_id>  (783) 
1

>  <reference_id>  (783) 
129

>  <inspiration_ids>  (783) 
[129, 41]

>  <energy_score>  (783) 
-65.6303797934471

>  <distance_score>  (783) 
1.3306339717021785

>  <path>  (783) 
/opt/xchem-fragalysis-2/maxwin/BulkDock/SCRATCH/505734/C3722-P129/C3722-P129.minimised.mol

>  <scratch_subdir>  (783) 
/opt/xchem-fragalysis-2/maxwin/BulkDock/SCRATCH/505734/C3722-P129

>  <fragmenstein_runtime>  (783) 
2.925265312194824

>  <fragmenstein_outcome>  (783) 
too moved

>  <fragmenstein_mode>  (783) 
expansion

>  <fragmenstein_error>  (783) 


$$$$
C3722-P41
     RDKit          3D

 61 66  0  0  0  0  0  0  0  0999 V2000
    3.2211   -4.5699   28.1242 C   0  0  0  0  0  0  0  0  0  0  0  0
    4.0162   -4.6079   29.2021 C   0  0  0  0  0  0  0  0  0  0  0  0
    3.9099   -3.6832   30.3841 C   0  0  0  0  0  0  0  0  0  0  0  0
    3.8135   -4.4265   31.6262 N   0  0  0  0  0  0  0  0  0  0  0  0
    4.8514   -4.6888   32.5041 C   0  0  0  0  0  0  0  0  0  0  0  0
    6.1947   -4.1291   32.4826 C   0  0  0  0  0  0  0  0  0  0  0  0
    7.3142   -4.9626   32.5113 C   0  0  0  0  0  0  0  0  0  0  0  0
    8.5925   -4.4077   32.4955 C   0  0  0  0  0  0  0  0  0  0  0  0
    8.7102   -3.0279   32.4538 C   0  0  0  0  0  0  0  0  0  0  0  0
    7.6542   -2.1859   32.4372 N   0  0  0  0  0  0  0  0  0  0  0  0
    6.4269   -2.7572   32.4834 C   0  0  0  0  0  0  0  0  0  0  0  0
    4.4281   -5.6110   33.3472 N   0  0  0  0  0  0  0  0  0  0  0  0
    3.1063   -5.8756   33.1012 N   0  0  0  0  0  0  0  0  0  0  0  0
    2.6863   -5.0065   32.2015 C   0  0  0  0  0  0  0  0  0  0  0  0
    1.2847   -4.3556   32.3111 C   0  0  0  0  0  0  0  0  0  0  0  0
    1.6167   -2.9509   32.8745 C   0  0  0  0  0  0  0  0  0  0  0  0
    1.4010   -1.7554   32.1930 C   0  0  0  0  0  0  0  0  0  0  0  0
    2.0639   -0.5998   32.6158 C   0  0  0  0  0  0  0  0  0  0  0  0
    2.9272   -0.6217   33.7233 C   0  0  0  0  0  0  0  0  0  0  0  0
    3.1098   -1.7878   34.4586 C   0  0  0  0  0  0  0  0  0  0  0  0
    4.0467   -1.8047   35.5279 N   0  0  0  0  0  0  0  0  0  0  0  0
    4.3328   -3.0841   36.5761 S   0  0  0  0  0  0  0  0  0  0  0  0
    2.7755   -3.2780   37.4205 C   0  0  0  0  0  0  0  0  0  0  0  0
    5.2778   -2.5760   37.5469 O   0  0  0  0  0  0  0  0  0  0  0  0
    4.6167   -4.2917   35.8416 O   0  0  0  0  0  0  0  0  0  0  0  0
    2.4432   -2.9179   34.0324 C   0  0  0  0  0  0  0  0  0  0  0  0
    0.5718   -4.3519   30.9331 C   0  0  0  0  0  0  0  0  0  0  0  0
    0.3269   -5.7605   30.3765 C   0  0  0  0  0  0  0  0  0  0  0  0
   -0.2769   -6.6526   31.3820 C   0  0  0  0  0  0  0  0  0  0  0  0
   -0.9938   -7.7441   31.2249 N   0  0  0  0  0  0  0  0  0  0  0  0
   -1.4243   -8.1352   32.4796 N   0  0  0  0  0  0  0  0  0  0  0  0
   -0.9668   -7.2662   33.3587 C   0  0  0  0  0  0  0  0  0  0  0  0
   -1.1131   -7.0965   34.7586 C   0  0  0  0  0  0  0  0  0  0  0  0
   -0.6287   -5.9777   35.3370 C   0  0  0  0  0  0  0  0  0  0  0  0
    0.0916   -4.9685   34.5769 C   0  0  0  0  0  0  0  0  0  0  0  0
    0.3729   -5.1848   33.2723 C   0  0  0  0  0  0  0  0  0  0  0  0
   -0.2162   -6.3189   32.7031 N   0  0  0  0  0  0  0  0  0  0  0  0
    2.4154   -3.8470   28.0286 H   0  0  0  0  0  0  0  0  0  0  0  0
    3.3821   -5.2535   27.2952 H   0  0  0  0  0  0  0  0  0  0  0  0
    4.8295   -5.3329   29.2275 H   0  0  0  0  0  0  0  0  0  0  0  0
    3.0603   -3.0056   30.3061 H   0  0  0  0  0  0  0  0  0  0  0  0
    4.8008   -3.0526   30.4090 H   0  0  0  0  0  0  0  0  0  0  0  0
    7.1953   -6.0425   32.5648 H   0  0  0  0  0  0  0  0  0  0  0  0
    9.4746   -5.0379   32.5277 H   0  0  0  0  0  0  0  0  0  0  0  0
    9.6860   -2.5500   32.4428 H   0  0  0  0  0  0  0  0  0  0  0  0
    5.6079   -2.0452   32.5270 H   0  0  0  0  0  0  0  0  0  0  0  0
    0.7782   -1.6988   31.3041 H   0  0  0  0  0  0  0  0  0  0  0  0
    1.9225    0.3321   32.0699 H   0  0  0  0  0  0  0  0  0  0  0  0
    3.4473    0.2926   34.0002 H   0  0  0  0  0  0  0  0  0  0  0  0
    4.4229   -0.9194   35.8677 H   0  0  0  0  0  0  0  0  0  0  0  0
    2.4800   -2.3143   37.8400 H   0  0  0  0  0  0  0  0  0  0  0  0
    2.0182   -3.6583   36.7404 H   0  0  0  0  0  0  0  0  0  0  0  0
    2.9264   -3.9965   38.2298 H   0  0  0  0  0  0  0  0  0  0  0  0
    2.6467   -3.8586   34.5387 H   0  0  0  0  0  0  0  0  0  0  0  0
    1.1093   -3.7751   30.1773 H   0  0  0  0  0  0  0  0  0  0  0  0
   -0.4018   -3.8488   31.0400 H   0  0  0  0  0  0  0  0  0  0  0  0
   -0.3686   -5.6523   29.5484 H   0  0  0  0  0  0  0  0  0  0  0  0
    1.2556   -6.1990   29.9999 H   0  0  0  0  0  0  0  0  0  0  0  0
   -1.6064   -7.8752   35.3271 H   0  0  0  0  0  0  0  0  0  0  0  0
   -0.7286   -5.8256   36.4084 H   0  0  0  0  0  0  0  0  0  0  0  0
    0.4276   -4.1061   35.1354 H   0  0  0  0  0  0  0  0  0  0  0  0
  1  2  2  0
  2  3  1  0
  3  4  1  0
  4  5  1  0
  5  6  1  0
  6  7  2  0
  7  8  1  0
  8  9  2  0
  9 10  1  0
 10 11  2  0
  5 12  2  0
 12 13  1  0
 13 14  2  0
 14 15  1  0
 15 16  1  0
 16 17  2  0
 17 18  1  0
 18 19  2  0
 19 20  1  0
 20 21  1  0
 21 22  1  0
 22 23  1  0
 22 24  2  0
 22 25  2  0
 20 26  2  0
 15 27  1  0
 27 28  1  0
 28 29  1  0
 29 30  2  0
 30 31  1  0
 31 32  2  0
 32 33  1  0
 33 34  2  0
 34 35  1  0
 35 36  2  0
 36 37  1  0
 14  4  1  0
 36 15  1  0
 11  6  1  0
 26 16  1  0
 37 29  1  0
 37 32  1  0
  1 38  1  0
  1 39  1  0
  2 40  1  0
  3 41  1  0
  3 42  1  0
  7 43  1  0
  8 44  1  0
  9 45  1  0
 11 46  1  0
 17 47  1  0
 18 48  1  0
 19 49  1  0
 21 50  1  0
 23 51  1  0
 23 52  1  0
 23 53  1  0
 26 54  1  0
 27 55  1  0
 27 56  1  0
 28 57  1  0
 28 58  1  0
 33 59  1  0
 34 60  1  0
 35 61  1  0
M  END
>  <Energy>  (784) 
76.481753069954181

>  <compound_id>  (784) 
3722

>  <target_id>  (784) 
1

>  <reference_id>  (784) 
41

>  <inspiration_ids>  (784) 
[129, 41]

>  <energy_score>  (784) 
-65.52657076734971

>  <distance_score>  (784) 
1.2865608466881508

>  <path>  (784) 
/opt/xchem-fragalysis-2/maxwin/BulkDock/SCRATCH/505734/C3722-P41/C3722-P41.minimised.mol

>  <scratch_subdir>  (784) 
/opt/xchem-fragalysis-2/maxwin/BulkDock/SCRATCH/505734/C3722-P41

>  <fragmenstein_runtime>  (784) 
2.803678512573242

>  <fragmenstein_outcome>  (784) 
too moved

>  <fragmenstein_mode>  (784) 
expansion

>  <fragmenstein_error>  (784) 


$$$$
C3724-P129
     RDKit          3D

 46 49  0  0  0  0  0  0  0  0999 V2000
    2.8849   -3.7239   36.9706 C   0  0  0  0  0  0  0  0  0  0  0  0
    4.4607   -3.5009   36.1608 S   0  0  0  0  0  0  0  0  0  0  0  0
    5.3898   -3.0188   37.1608 O   0  0  0  0  0  0  0  0  0  0  0  0
    4.7788   -4.6447   35.3353 O   0  0  0  0  0  0  0  0  0  0  0  0
    4.1602   -2.1808   35.1747 N   0  0  0  0  0  0  0  0  0  0  0  0
    3.5720   -2.2598   33.8788 C   0  0  0  0  0  0  0  0  0  0  0  0
    3.6434   -1.1310   33.0604 C   0  0  0  0  0  0  0  0  0  0  0  0
    2.9688   -1.0915   31.8355 C   0  0  0  0  0  0  0  0  0  0  0  0
    2.1853   -2.1704   31.4305 C   0  0  0  0  0  0  0  0  0  0  0  0
    2.0829   -3.2943   32.2494 C   0  0  0  0  0  0  0  0  0  0  0  0
    1.2433   -4.4388   31.8745 C   0  0  0  0  0  0  0  0  0  0  0  0
    1.3339   -5.1385   30.5962 C   0  0  0  0  0  0  0  0  0  0  0  0
    0.6243   -6.2551   30.3542 C   0  0  0  0  0  0  0  0  0  0  0  0
   -0.2513   -6.7774   31.3321 C   0  0  0  0  0  0  0  0  0  0  0  0
   -1.0442   -7.8242   31.3791 N   0  0  0  0  0  0  0  0  0  0  0  0
   -1.5404   -7.8979   32.6688 N   0  0  0  0  0  0  0  0  0  0  0  0
   -1.0419   -6.8951   33.3604 C   0  0  0  0  0  0  0  0  0  0  0  0
   -1.0893   -6.6018   34.6872 N   0  0  0  0  0  0  0  0  0  0  0  0
   -0.5682   -7.6493   35.5523 C   0  0  0  0  0  0  0  0  0  0  0  0
    0.8191   -7.3878   36.0780 C   0  0  0  0  0  0  0  0  0  0  0  0
    1.0465   -7.4806   37.4589 C   0  0  0  0  0  0  0  0  0  0  0  0
    2.3432   -7.4195   37.9366 C   0  0  0  0  0  0  0  0  0  0  0  0
    3.4194   -7.2686   37.1416 N   0  0  0  0  0  0  0  0  0  0  0  0
    3.1870   -7.1795   35.8155 C   0  0  0  0  0  0  0  0  0  0  0  0
    1.9245   -7.2228   35.2447 C   0  0  0  0  0  0  0  0  0  0  0  0
   -0.2941   -6.1055   32.5309 N   0  0  0  0  0  0  0  0  0  0  0  0
    0.4046   -4.9403   32.8009 C   0  0  0  0  0  0  0  0  0  0  0  0
    2.7918   -3.3328   33.4616 C   0  0  0  0  0  0  0  0  0  0  0  0
    3.0204   -4.4617   37.7629 H   0  0  0  0  0  0  0  0  0  0  0  0
    2.5835   -2.7729   37.4146 H   0  0  0  0  0  0  0  0  0  0  0  0
    2.1397   -4.0733   36.2576 H   0  0  0  0  0  0  0  0  0  0  0  0
    4.7931   -1.4051   35.3705 H   0  0  0  0  0  0  0  0  0  0  0  0
    4.2157   -0.2595   33.3691 H   0  0  0  0  0  0  0  0  0  0  0  0
    3.0355   -0.2047   31.2090 H   0  0  0  0  0  0  0  0  0  0  0  0
    1.6413   -2.1111   30.4903 H   0  0  0  0  0  0  0  0  0  0  0  0
    2.0271   -4.7541   29.8532 H   0  0  0  0  0  0  0  0  0  0  0  0
    0.7604   -6.8072   29.4492 H   0  0  0  0  0  0  0  0  0  0  0  0
   -2.0470   -6.4349   34.9845 H   0  0  0  0  0  0  0  0  0  0  0  0
   -1.2571   -7.7514   36.3906 H   0  0  0  0  0  0  0  0  0  0  0  0
   -0.5587   -8.6100   35.0567 H   0  0  0  0  0  0  0  0  0  0  0  0
    0.2320   -7.6571   38.1551 H   0  0  0  0  0  0  0  0  0  0  0  0
    2.5542   -7.5103   38.9981 H   0  0  0  0  0  0  0  0  0  0  0  0
    4.0778   -7.0697   35.2025 H   0  0  0  0  0  0  0  0  0  0  0  0
    1.8153   -7.1617   34.1712 H   0  0  0  0  0  0  0  0  0  0  0  0
    0.2650   -4.5210   33.7917 H   0  0  0  0  0  0  0  0  0  0  0  0
    2.7112   -4.2237   34.0736 H   0  0  0  0  0  0  0  0  0  0  0  0
  1  2  1  0
  2  3  2  0
  2  4  2  0
  2  5  1  0
  5  6  1  0
  6  7  2  0
  7  8  1  0
  8  9  2  0
  9 10  1  0
 10 11  1  0
 11 12  1  0
 12 13  2  0
 13 14  1  0
 14 15  2  0
 15 16  1  0
 16 17  2  0
 17 18  1  0
 18 19  1  0
 19 20  1  0
 20 21  2  0
 21 22  1  0
 22 23  2  0
 23 24  1  0
 24 25  2  0
 17 26  1  0
 26 27  1  0
 10 28  2  0
 28  6  1  0
 27 11  2  0
 26 14  1  0
 25 20  1  0
  1 29  1  0
  1 30  1  0
  1 31  1  0
  5 32  1  0
  7 33  1  0
  8 34  1  0
  9 35  1  0
 12 36  1  0
 13 37  1  0
 18 38  1  0
 19 39  1  0
 19 40  1  0
 21 41  1  0
 22 42  1  0
 24 43  1  0
 25 44  1  0
 27 45  1  0
 28 46  1  0
M  END
>  <Energy>  (785) 
14.085984636358742

>  <compound_id>  (785) 
3724

>  <target_id>  (785) 
1

>  <reference_id>  (785) 
129

>  <inspiration_ids>  (785) 
[129, 56]

>  <energy_score>  (785) 
-49.745679279518455

>  <distance_score>  (785) 
1.1193895461789456

>  <path>  (785) 
/opt/xchem-fragalysis-2/maxwin/BulkDock/SCRATCH/505734/C3724-P129/C3724-P129.minimised.mol

>  <scratch_subdir>  (785) 
/opt/xchem-fragalysis-2/maxwin/BulkDock/SCRATCH/505734/C3724-P129

>  <fragmenstein_runtime>  (785) 
2.302455186843872

>  <fragmenstein_outcome>  (785) 
too moved

>  <fragmenstein_mode>  (785) 
expansion

>  <fragmenstein_error>  (785) 


$$$$
C3724-P56
     RDKit          3D

 46 49  0  0  0  0  0  0  0  0999 V2000
    3.4934   -2.5599   36.4878 C   0  0  0  0  0  0  0  0  0  0  0  0
    4.8251   -3.3686   35.6139 S   0  0  0  0  0  0  0  0  0  0  0  0
    6.0380   -3.0219   36.3276 O   0  0  0  0  0  0  0  0  0  0  0  0
    4.5345   -4.7384   35.2621 O   0  0  0  0  0  0  0  0  0  0  0  0
    4.8408   -2.4863   34.1838 N   0  0  0  0  0  0  0  0  0  0  0  0
    3.7280   -2.4869   33.2783 C   0  0  0  0  0  0  0  0  0  0  0  0
    3.4205   -1.2629   32.6815 C   0  0  0  0  0  0  0  0  0  0  0  0
    2.3839   -1.1678   31.7576 C   0  0  0  0  0  0  0  0  0  0  0  0
    1.6503   -2.3016   31.4126 C   0  0  0  0  0  0  0  0  0  0  0  0
    1.9524   -3.5556   31.9644 C   0  0  0  0  0  0  0  0  0  0  0  0
    1.1350   -4.7275   31.5396 C   0  0  0  0  0  0  0  0  0  0  0  0
    0.7201   -4.9539   30.1526 C   0  0  0  0  0  0  0  0  0  0  0  0
   -0.1159   -5.9492   29.8050 C   0  0  0  0  0  0  0  0  0  0  0  0
   -0.6388   -6.8116   30.8002 C   0  0  0  0  0  0  0  0  0  0  0  0
   -1.5432   -7.7604   30.7462 N   0  0  0  0  0  0  0  0  0  0  0  0
   -1.6628   -8.2992   31.9953 N   0  0  0  0  0  0  0  0  0  0  0  0
   -0.8349   -7.6667   32.8025 C   0  0  0  0  0  0  0  0  0  0  0  0
   -0.5883   -8.0710   34.0855 N   0  0  0  0  0  0  0  0  0  0  0  0
   -1.2636   -7.3469   35.1460 C   0  0  0  0  0  0  0  0  0  0  0  0
   -0.5134   -6.1792   35.6811 C   0  0  0  0  0  0  0  0  0  0  0  0
   -1.1999   -5.1298   36.2945 C   0  0  0  0  0  0  0  0  0  0  0  0
   -0.5412   -4.0286   36.7997 C   0  0  0  0  0  0  0  0  0  0  0  0
    0.7824   -3.9189   36.7504 N   0  0  0  0  0  0  0  0  0  0  0  0
    1.4316   -4.9548   36.1810 C   0  0  0  0  0  0  0  0  0  0  0  0
    0.8545   -6.0983   35.6668 C   0  0  0  0  0  0  0  0  0  0  0  0
   -0.1934   -6.6448   32.1017 N   0  0  0  0  0  0  0  0  0  0  0  0
    0.6764   -5.6101   32.4512 C   0  0  0  0  0  0  0  0  0  0  0  0
    3.0111   -3.6351   32.8941 C   0  0  0  0  0  0  0  0  0  0  0  0
    3.3090   -3.0809   37.4262 H   0  0  0  0  0  0  0  0  0  0  0  0
    3.8168   -1.5400   36.7145 H   0  0  0  0  0  0  0  0  0  0  0  0
    2.6104   -2.5166   35.8551 H   0  0  0  0  0  0  0  0  0  0  0  0
    5.3880   -1.6314   34.2636 H   0  0  0  0  0  0  0  0  0  0  0  0
    3.9797   -0.3650   32.9300 H   0  0  0  0  0  0  0  0  0  0  0  0
    2.1428   -0.2090   31.3051 H   0  0  0  0  0  0  0  0  0  0  0  0
    0.8331   -2.1899   30.7021 H   0  0  0  0  0  0  0  0  0  0  0  0
    1.1240   -4.2985   29.3856 H   0  0  0  0  0  0  0  0  0  0  0  0
   -0.4044   -6.1124   28.7727 H   0  0  0  0  0  0  0  0  0  0  0  0
   -0.9607   -9.0247   34.1472 H   0  0  0  0  0  0  0  0  0  0  0  0
   -1.4090   -8.0393   35.9839 H   0  0  0  0  0  0  0  0  0  0  0  0
   -2.2650   -7.0576   34.8150 H   0  0  0  0  0  0  0  0  0  0  0  0
   -2.2660   -5.1469   36.3514 H   0  0  0  0  0  0  0  0  0  0  0  0
   -1.0756   -3.2026   37.2557 H   0  0  0  0  0  0  0  0  0  0  0  0
    2.5049   -4.8904   36.1825 H   0  0  0  0  0  0  0  0  0  0  0  0
    1.4780   -6.8728   35.2270 H   0  0  0  0  0  0  0  0  0  0  0  0
    0.9436   -5.5219   33.4767 H   0  0  0  0  0  0  0  0  0  0  0  0
    3.2848   -4.6113   33.2858 H   0  0  0  0  0  0  0  0  0  0  0  0
  1  2  1  0
  2  3  2  0
  2  4  2  0
  2  5  1  0
  5  6  1  0
  6  7  2  0
  7  8  1  0
  8  9  2  0
  9 10  1  0
 10 11  1  0
 11 12  1  0
 12 13  2  0
 13 14  1  0
 14 15  2  0
 15 16  1  0
 16 17  2  0
 17 18  1  0
 18 19  1  0
 19 20  1  0
 20 21  2  0
 21 22  1  0
 22 23  2  0
 23 24  1  0
 24 25  2  0
 17 26  1  0
 26 27  1  0
 10 28  2  0
 28  6  1  0
 27 11  2  0
 26 14  1  0
 25 20  1  0
  1 29  1  0
  1 30  1  0
  1 31  1  0
  5 32  1  0
  7 33  1  0
  8 34  1  0
  9 35  1  0
 12 36  1  0
 13 37  1  0
 18 38  1  0
 19 39  1  0
 19 40  1  0
 21 41  1  0
 22 42  1  0
 24 43  1  0
 25 44  1  0
 27 45  1  0
 28 46  1  0
M  END
>  <Energy>  (786) 
22.086746145878447

>  <compound_id>  (786) 
3724

>  <target_id>  (786) 
1

>  <reference_id>  (786) 
56

>  <inspiration_ids>  (786) 
[129, 56]

>  <energy_score>  (786) 
-41.74491776999861

>  <distance_score>  (786) 
1.4465339974382612

>  <path>  (786) 
/opt/xchem-fragalysis-2/maxwin/BulkDock/SCRATCH/505734/C3724-P56/C3724-P56.minimised.mol

>  <scratch_subdir>  (786) 
/opt/xchem-fragalysis-2/maxwin/BulkDock/SCRATCH/505734/C3724-P56

>  <fragmenstein_runtime>  (786) 
2.8132569789886475

>  <fragmenstein_outcome>  (786) 
too moved

>  <fragmenstein_mode>  (786) 
expansion

>  <fragmenstein_error>  (786) 


$$$$
C3726-P129
     RDKit          3D

 47 51  0  0  0  0  0  0  0  0999 V2000
    2.8797   -3.4626   37.4305 C   0  0  0  0  0  0  0  0  0  0  0  0
    4.3444   -3.4398   36.4284 S   0  0  0  0  0  0  0  0  0  0  0  0
    5.4232   -2.9658   37.2680 O   0  0  0  0  0  0  0  0  0  0  0  0
    4.4468   -4.6939   35.7151 O   0  0  0  0  0  0  0  0  0  0  0  0
    3.9830   -2.1625   35.3747 N   0  0  0  0  0  0  0  0  0  0  0  0
    3.6400   -2.4824   34.0291 C   0  0  0  0  0  0  0  0  0  0  0  0
    4.4196   -1.9817   32.9948 C   0  0  0  0  0  0  0  0  0  0  0  0
    4.1648   -2.3909   31.6925 C   0  0  0  0  0  0  0  0  0  0  0  0
    3.1647   -3.3336   31.4426 C   0  0  0  0  0  0  0  0  0  0  0  0
    2.3353   -3.8216   32.4704 C   0  0  0  0  0  0  0  0  0  0  0  0
    1.2496   -4.8096   32.1580 C   0  0  0  0  0  0  0  0  0  0  0  0
    0.6426   -4.7225   30.8179 C   0  0  0  0  0  0  0  0  0  0  0  0
   -0.1290   -5.6832   30.3033 C   0  0  0  0  0  0  0  0  0  0  0  0
   -0.5635   -6.7394   31.1229 C   0  0  0  0  0  0  0  0  0  0  0  0
   -1.3289   -7.7775   30.8817 N   0  0  0  0  0  0  0  0  0  0  0  0
   -1.5794   -8.3839   32.0820 N   0  0  0  0  0  0  0  0  0  0  0  0
   -0.9802   -7.6961   33.0276 C   0  0  0  0  0  0  0  0  0  0  0  0
   -1.0949   -7.8835   34.3654 N   0  0  0  0  0  0  0  0  0  0  0  0
   -0.1965   -6.7006   32.4572 N   0  0  0  0  0  0  0  0  0  0  0  0
    0.7963   -5.8250   32.9628 C   0  0  0  0  0  0  0  0  0  0  0  0
    1.5719   -6.3189   34.4465 S   0  0  0  0  0  0  0  0  0  0  0  0
    0.4941   -5.7709   35.7214 C   0  0  0  0  0  0  0  0  0  0  0  0
   -0.1538   -4.6616   35.5597 N   0  0  0  0  0  0  0  0  0  0  0  0
   -0.8432   -4.1211   36.6360 C   0  0  0  0  0  0  0  0  0  0  0  0
   -1.5124   -3.1007   36.5371 O   0  0  0  0  0  0  0  0  0  0  0  0
   -0.6199   -4.8239   37.8819 C   0  0  0  0  0  0  0  0  0  0  0  0
   -1.0840   -4.2484   39.4086 S   0  0  0  0  0  0  0  0  0  0  0  0
   -0.4548   -5.6526   40.1792 C   0  0  0  0  0  0  0  0  0  0  0  0
    0.1318   -6.5233   39.2812 C   0  0  0  0  0  0  0  0  0  0  0  0
    0.0446   -6.0171   37.9653 C   0  0  0  0  0  0  0  0  0  0  0  0
    0.5499   -6.5562   36.8461 N   0  0  0  0  0  0  0  0  0  0  0  0
    2.5534   -3.3122   33.7503 C   0  0  0  0  0  0  0  0  0  0  0  0
    2.9664   -4.2894   38.1385 H   0  0  0  0  0  0  0  0  0  0  0  0
    2.8071   -2.5174   37.9721 H   0  0  0  0  0  0  0  0  0  0  0  0
    2.0116   -3.6040   36.7967 H   0  0  0  0  0  0  0  0  0  0  0  0
    4.6559   -1.4050   35.5022 H   0  0  0  0  0  0  0  0  0  0  0  0
    5.2461   -1.3053   33.1904 H   0  0  0  0  0  0  0  0  0  0  0  0
    4.7810   -2.0221   30.8763 H   0  0  0  0  0  0  0  0  0  0  0  0
    3.0599   -3.6842   30.4184 H   0  0  0  0  0  0  0  0  0  0  0  0
    0.8460   -3.8466   30.2059 H   0  0  0  0  0  0  0  0  0  0  0  0
   -0.5252   -5.5767   29.3053 H   0  0  0  0  0  0  0  0  0  0  0  0
   -1.7495   -7.2439   34.8065 H   0  0  0  0  0  0  0  0  0  0  0  0
   -1.4481   -8.8320   34.5889 H   0  0  0  0  0  0  0  0  0  0  0  0
   -0.5456   -5.7620   41.2516 H   0  0  0  0  0  0  0  0  0  0  0  0
    0.5956   -7.4583   39.5715 H   0  0  0  0  0  0  0  0  0  0  0  0
    1.0752   -7.4227   36.8055 H   0  0  0  0  0  0  0  0  0  0  0  0
    1.8863   -3.5681   34.5588 H   0  0  0  0  0  0  0  0  0  0  0  0
  1  2  1  0
  2  3  2  0
  2  4  2  0
  2  5  1  0
  5  6  1  0
  6  7  2  0
  7  8  1  0
  8  9  2  0
  9 10  1  0
 10 11  1  0
 11 12  1  0
 12 13  2  0
 13 14  1  0
 14 15  2  0
 15 16  1  0
 16 17  2  0
 17 18  1  0
 17 19  1  0
 19 20  1  0
 20 21  1  0
 21 22  1  0
 22 23  2  0
 23 24  1  0
 24 25  2  0
 24 26  1  0
 26 27  1  0
 27 28  1  0
 28 29  2  0
 29 30  1  0
 30 31  1  0
 10 32  2  0
 32  6  1  0
 20 11  2  0
 31 22  1  0
 19 14  1  0
 30 26  2  0
  1 33  1  0
  1 34  1  0
  1 35  1  0
  5 36  1  0
  7 37  1  0
  8 38  1  0
  9 39  1  0
 12 40  1  0
 13 41  1  0
 18 42  1  0
 18 43  1  0
 28 44  1  0
 29 45  1  0
 31 46  1  0
 32 47  1  0
M  END
>  <Energy>  (787) 
-29.251205796794466

>  <compound_id>  (787) 
3726

>  <target_id>  (787) 
1

>  <reference_id>  (787) 
129

>  <inspiration_ids>  (787) 
[129, 72]

>  <energy_score>  (787) 
-71.80597132522196

>  <distance_score>  (787) 
0.777156800204561

>  <path>  (787) 
/opt/xchem-fragalysis-2/maxwin/BulkDock/SCRATCH/505734/C3726-P129/C3726-P129.minimised.mol

>  <scratch_subdir>  (787) 
/opt/xchem-fragalysis-2/maxwin/BulkDock/SCRATCH/505734/C3726-P129

>  <fragmenstein_runtime>  (787) 
2.2323267459869385

>  <fragmenstein_outcome>  (787) 
acceptable

>  <fragmenstein_mode>  (787) 
expansion

>  <fragmenstein_error>  (787) 


$$$$
C3726-P72
     RDKit          3D

 47 51  0  0  0  0  0  0  0  0999 V2000
    2.9437   -3.0992   36.9189 C   0  0  0  0  0  0  0  0  0  0  0  0
    4.4959   -3.7357   36.3130 S   0  0  0  0  0  0  0  0  0  0  0  0
    5.5151   -3.3439   37.2617 O   0  0  0  0  0  0  0  0  0  0  0  0
    4.3176   -5.1239   35.9451 O   0  0  0  0  0  0  0  0  0  0  0  0
    4.7801   -2.8193   34.9291 N   0  0  0  0  0  0  0  0  0  0  0  0
    3.7830   -2.7304   33.9158 C   0  0  0  0  0  0  0  0  0  0  0  0
    3.4594   -1.4687   33.4172 C   0  0  0  0  0  0  0  0  0  0  0  0
    2.4034   -1.3281   32.5229 C   0  0  0  0  0  0  0  0  0  0  0  0
    1.6582   -2.4468   32.1554 C   0  0  0  0  0  0  0  0  0  0  0  0
    2.0030   -3.7293   32.6169 C   0  0  0  0  0  0  0  0  0  0  0  0
    1.1513   -4.8895   32.2389 C   0  0  0  0  0  0  0  0  0  0  0  0
    0.8119   -5.0411   30.8198 C   0  0  0  0  0  0  0  0  0  0  0  0
   -0.0390   -5.9734   30.3851 C   0  0  0  0  0  0  0  0  0  0  0  0
   -0.6017   -6.8955   31.2785 C   0  0  0  0  0  0  0  0  0  0  0  0
   -1.3952   -7.9176   31.0747 N   0  0  0  0  0  0  0  0  0  0  0  0
   -1.7188   -8.4226   32.2986 N   0  0  0  0  0  0  0  0  0  0  0  0
   -1.1263   -7.7036   33.2262 C   0  0  0  0  0  0  0  0  0  0  0  0
   -1.2515   -7.8840   34.5643 N   0  0  0  0  0  0  0  0  0  0  0  0
   -0.3303   -6.7326   32.6268 N   0  0  0  0  0  0  0  0  0  0  0  0
    0.5609   -5.7510   33.1252 C   0  0  0  0  0  0  0  0  0  0  0  0
    0.8455   -5.7340   34.8492 S   0  0  0  0  0  0  0  0  0  0  0  0
   -0.2488   -4.4741   35.4060 C   0  0  0  0  0  0  0  0  0  0  0  0
   -0.5525   -3.5188   34.5902 N   0  0  0  0  0  0  0  0  0  0  0  0
   -1.3424   -2.4709   35.0311 C   0  0  0  0  0  0  0  0  0  0  0  0
   -1.6592   -1.5455   34.2927 O   0  0  0  0  0  0  0  0  0  0  0  0
   -1.6805   -2.5476   36.4371 C   0  0  0  0  0  0  0  0  0  0  0  0
   -2.5679   -1.3695   37.2776 S   0  0  0  0  0  0  0  0  0  0  0  0
   -2.4603   -2.2668   38.7411 C   0  0  0  0  0  0  0  0  0  0  0  0
   -1.7534   -3.4434   38.5822 C   0  0  0  0  0  0  0  0  0  0  0  0
   -1.3124   -3.5893   37.2473 C   0  0  0  0  0  0  0  0  0  0  0  0
   -0.6055   -4.6056   36.7256 N   0  0  0  0  0  0  0  0  0  0  0  0
    3.1210   -3.8623   33.4400 C   0  0  0  0  0  0  0  0  0  0  0  0
    2.6885   -3.6491   37.8275 H   0  0  0  0  0  0  0  0  0  0  0  0
    3.0675   -2.0397   37.1518 H   0  0  0  0  0  0  0  0  0  0  0  0
    2.1655   -3.2397   36.1739 H   0  0  0  0  0  0  0  0  0  0  0  0
    5.3187   -1.9769   35.1330 H   0  0  0  0  0  0  0  0  0  0  0  0
    3.9941   -0.5812   33.7439 H   0  0  0  0  0  0  0  0  0  0  0  0
    2.1210   -0.3442   32.1555 H   0  0  0  0  0  0  0  0  0  0  0  0
    0.7808   -2.2979   31.5267 H   0  0  0  0  0  0  0  0  0  0  0  0
    1.2114   -4.3189   30.1108 H   0  0  0  0  0  0  0  0  0  0  0  0
   -0.3741   -5.9781   29.3675 H   0  0  0  0  0  0  0  0  0  0  0  0
   -1.5446   -8.8500   34.7848 H   0  0  0  0  0  0  0  0  0  0  0  0
   -0.4420   -7.6553   35.1314 H   0  0  0  0  0  0  0  0  0  0  0  0
   -2.9244   -1.8891   39.6428 H   0  0  0  0  0  0  0  0  0  0  0  0
   -1.5907   -4.1477   39.3893 H   0  0  0  0  0  0  0  0  0  0  0  0
   -0.2699   -5.4031   37.2507 H   0  0  0  0  0  0  0  0  0  0  0  0
    3.4442   -4.8515   33.7482 H   0  0  0  0  0  0  0  0  0  0  0  0
  1  2  1  0
  2  3  2  0
  2  4  2  0
  2  5  1  0
  5  6  1  0
  6  7  2  0
  7  8  1  0
  8  9  2  0
  9 10  1  0
 10 11  1  0
 11 12  1  0
 12 13  2  0
 13 14  1  0
 14 15  2  0
 15 16  1  0
 16 17  2  0
 17 18  1  0
 17 19  1  0
 19 20  1  0
 20 21  1  0
 21 22  1  0
 22 23  2  0
 23 24  1  0
 24 25  2  0
 24 26  1  0
 26 27  1  0
 27 28  1  0
 28 29  2  0
 29 30  1  0
 30 31  1  0
 10 32  2  0
 32  6  1  0
 20 11  2  0
 31 22  1  0
 19 14  1  0
 30 26  2  0
  1 33  1  0
  1 34  1  0
  1 35  1  0
  5 36  1  0
  7 37  1  0
  8 38  1  0
  9 39  1  0
 12 40  1  0
 13 41  1  0
 18 42  1  0
 18 43  1  0
 28 44  1  0
 29 45  1  0
 31 46  1  0
 32 47  1  0
M  END
>  <Energy>  (788) 
-40.322736682390065

>  <compound_id>  (788) 
3726

>  <target_id>  (788) 
1

>  <reference_id>  (788) 
72

>  <inspiration_ids>  (788) 
[129, 72]

>  <energy_score>  (788) 
-82.87750221081697

>  <distance_score>  (788) 
0.6593419729230728

>  <path>  (788) 
/opt/xchem-fragalysis-2/maxwin/BulkDock/SCRATCH/505734/C3726-P72/C3726-P72.minimised.mol

>  <scratch_subdir>  (788) 
/opt/xchem-fragalysis-2/maxwin/BulkDock/SCRATCH/505734/C3726-P72

>  <fragmenstein_runtime>  (788) 
2.1920762062072754

>  <fragmenstein_outcome>  (788) 
acceptable

>  <fragmenstein_mode>  (788) 
expansion

>  <fragmenstein_error>  (788) 


$$$$
C3729-P129
     RDKit          3D

 53 54  0  0  0  0  0  0  0  0999 V2000
   -0.8956   -0.6029   28.5108 C   0  0  0  0  0  0  0  0  0  0  0  0
   -1.5064   -1.6126   29.4670 C   0  0  0  0  0  0  0  0  0  0  0  0
   -0.4562   -2.3850   30.2802 C   0  0  0  0  0  0  0  0  0  0  0  0
    0.2317   -3.6077   29.6266 C   0  0  0  0  0  0  0  0  0  0  0  0
   -0.1133   -3.8419   28.2733 N   0  0  0  0  0  0  0  0  0  0  0  0
    0.2030   -4.9508   30.1768 N   0  0  0  0  0  0  0  0  0  0  0  0
    1.5395   -5.2814   30.6280 N   0  0  0  0  0  0  0  0  0  0  0  0
    2.2836   -4.0294   30.5511 C   0  0  0  0  0  0  0  0  0  0  0  0
    3.7853   -4.2354   30.3619 C   0  0  0  0  0  0  0  0  0  0  0  0
    4.6628   -3.0234   29.9989 C   0  0  0  0  0  0  0  0  0  0  0  0
    4.2835   -1.6317   30.5195 C   0  0  0  0  0  0  0  0  0  0  0  0
    3.7044   -1.5786   31.9074 C   0  0  0  0  0  0  0  0  0  0  0  0
    2.4426   -1.0010   32.0854 C   0  0  0  0  0  0  0  0  0  0  0  0
    1.8017   -1.0668   33.3158 C   0  0  0  0  0  0  0  0  0  0  0  0
    2.4468   -1.6358   34.4047 C   0  0  0  0  0  0  0  0  0  0  0  0
    3.7484   -2.1012   34.2684 C   0  0  0  0  0  0  0  0  0  0  0  0
    4.4568   -2.4864   35.4330 N   0  0  0  0  0  0  0  0  0  0  0  0
    4.2520   -4.0067   36.0938 S   0  0  0  0  0  0  0  0  0  0  0  0
    2.6845   -3.8931   36.9318 C   0  0  0  0  0  0  0  0  0  0  0  0
    5.2749   -4.1037   37.1133 O   0  0  0  0  0  0  0  0  0  0  0  0
    4.1562   -4.9872   35.0347 O   0  0  0  0  0  0  0  0  0  0  0  0
    4.3703   -2.1070   33.0201 C   0  0  0  0  0  0  0  0  0  0  0  0
    1.6376   -3.3154   29.4781 N   0  0  0  0  0  0  0  0  0  0  0  0
   -1.1153   -2.8174   31.8569 S   0  0  0  0  0  0  0  0  0  0  0  0
   -2.1484   -3.8156   31.6713 O   0  0  0  0  0  0  0  0  0  0  0  0
   -1.3690   -1.6168   32.6284 O   0  0  0  0  0  0  0  0  0  0  0  0
    0.0360   -3.5905   32.6346 F   0  0  0  0  0  0  0  0  0  0  0  0
   -0.1797   -1.0707   27.8314 H   0  0  0  0  0  0  0  0  0  0  0  0
   -0.3704    0.1844   29.0617 H   0  0  0  0  0  0  0  0  0  0  0  0
   -1.6756   -0.1276   27.9083 H   0  0  0  0  0  0  0  0  0  0  0  0
   -2.1553   -2.2979   28.9222 H   0  0  0  0  0  0  0  0  0  0  0  0
   -2.1556   -1.0435   30.1428 H   0  0  0  0  0  0  0  0  0  0  0  0
    0.3041   -1.6464   30.5461 H   0  0  0  0  0  0  0  0  0  0  0  0
    0.1348   -4.8180   28.1005 H   0  0  0  0  0  0  0  0  0  0  0  0
   -1.1286   -3.8542   28.1388 H   0  0  0  0  0  0  0  0  0  0  0  0
   -0.5341   -5.1036   30.8643 H   0  0  0  0  0  0  0  0  0  0  0  0
    1.5742   -5.6263   31.5914 H   0  0  0  0  0  0  0  0  0  0  0  0
    2.1139   -3.5144   31.4956 H   0  0  0  0  0  0  0  0  0  0  0  0
    4.1770   -4.6368   31.3048 H   0  0  0  0  0  0  0  0  0  0  0  0
    3.9655   -5.0082   29.6023 H   0  0  0  0  0  0  0  0  0  0  0  0
    5.6849   -3.2518   30.3306 H   0  0  0  0  0  0  0  0  0  0  0  0
    4.7286   -2.9584   28.9045 H   0  0  0  0  0  0  0  0  0  0  0  0
    3.5738   -1.1886   29.8087 H   0  0  0  0  0  0  0  0  0  0  0  0
    5.1668   -0.9810   30.4862 H   0  0  0  0  0  0  0  0  0  0  0  0
    1.9528   -0.4980   31.2544 H   0  0  0  0  0  0  0  0  0  0  0  0
    0.8246   -0.6083   33.4481 H   0  0  0  0  0  0  0  0  0  0  0  0
    1.9621   -1.5983   35.3753 H   0  0  0  0  0  0  0  0  0  0  0  0
    5.4361   -2.1997   35.4794 H   0  0  0  0  0  0  0  0  0  0  0  0
    2.5681   -4.7936   37.5397 H   0  0  0  0  0  0  0  0  0  0  0  0
    2.6879   -3.0135   37.5779 H   0  0  0  0  0  0  0  0  0  0  0  0
    1.8809   -3.8490   36.1961 H   0  0  0  0  0  0  0  0  0  0  0  0
    5.3738   -2.5106   32.9128 H   0  0  0  0  0  0  0  0  0  0  0  0
    1.8902   -3.7640   28.6039 H   0  0  0  0  0  0  0  0  0  0  0  0
  1  2  1  0
  2  3  1  0
  3  4  1  0
  4  5  1  0
  4  6  1  0
  6  7  1  0
  7  8  1  0
  8  9  1  0
  9 10  1  0
 10 11  1  0
 11 12  1  0
 12 13  2  0
 13 14  1  0
 14 15  2  0
 15 16  1  0
 16 17  1  0
 17 18  1  0
 18 19  1  0
 18 20  2  0
 18 21  2  0
 16 22  2  0
  8 23  1  0
  3 24  1  0
 24 25  2  0
 24 26  2  0
 24 27  1  0
 23  4  1  0
 22 12  1  0
  1 28  1  0
  1 29  1  0
  1 30  1  0
  2 31  1  0
  2 32  1  0
  3 33  1  0
  5 34  1  0
  5 35  1  0
  6 36  1  0
  7 37  1  0
  8 38  1  0
  9 39  1  0
  9 40  1  0
 10 41  1  0
 10 42  1  0
 11 43  1  0
 11 44  1  0
 13 45  1  0
 14 46  1  0
 15 47  1  0
 17 48  1  0
 19 49  1  0
 19 50  1  0
 19 51  1  0
 22 52  1  0
 23 53  1  0
M  END
>  <Energy>  (789) 
-142.477037466962

>  <compound_id>  (789) 
3729

>  <target_id>  (789) 
1

>  <reference_id>  (789) 
129

>  <inspiration_ids>  (789) 
[129, 130]

>  <energy_score>  (789) 
-52.46205846535677

>  <distance_score>  (789) 
1.643861196789985

>  <path>  (789) 
/opt/xchem-fragalysis-2/maxwin/BulkDock/SCRATCH/505734/C3729-P129/C3729-P129.minimised.mol

>  <scratch_subdir>  (789) 
/opt/xchem-fragalysis-2/maxwin/BulkDock/SCRATCH/505734/C3729-P129

>  <fragmenstein_runtime>  (789) 
5.648727893829346

>  <fragmenstein_outcome>  (789) 
too moved

>  <fragmenstein_mode>  (789) 
expansion

>  <fragmenstein_error>  (789) 


$$$$
C3729-P130
     RDKit          3D

 53 54  0  0  0  0  0  0  0  0999 V2000
   -1.0145   -0.6030   28.4713 C   0  0  0  0  0  0  0  0  0  0  0  0
   -1.6302   -1.5934   29.4442 C   0  0  0  0  0  0  0  0  0  0  0  0
   -0.5787   -2.3668   30.2584 C   0  0  0  0  0  0  0  0  0  0  0  0
    0.0875   -3.6077   29.6165 C   0  0  0  0  0  0  0  0  0  0  0  0
   -0.2501   -3.8333   28.2595 N   0  0  0  0  0  0  0  0  0  0  0  0
    0.0164   -4.9474   30.1713 N   0  0  0  0  0  0  0  0  0  0  0  0
    1.3416   -5.3201   30.6196 N   0  0  0  0  0  0  0  0  0  0  0  0
    2.1222   -4.0916   30.5529 C   0  0  0  0  0  0  0  0  0  0  0  0
    3.6149   -4.3547   30.3719 C   0  0  0  0  0  0  0  0  0  0  0  0
    4.5382   -3.1861   29.9827 C   0  0  0  0  0  0  0  0  0  0  0  0
    4.2205   -1.7719   30.4828 C   0  0  0  0  0  0  0  0  0  0  0  0
    3.6582   -1.6762   31.8752 C   0  0  0  0  0  0  0  0  0  0  0  0
    2.4032   -1.0838   32.0521 C   0  0  0  0  0  0  0  0  0  0  0  0
    1.7753   -1.1136   33.2903 C   0  0  0  0  0  0  0  0  0  0  0  0
    2.4304   -1.6566   34.3866 C   0  0  0  0  0  0  0  0  0  0  0  0
    3.7273   -2.1349   34.2479 C   0  0  0  0  0  0  0  0  0  0  0  0
    4.4440   -2.4961   35.4155 N   0  0  0  0  0  0  0  0  0  0  0  0
    4.2493   -4.0087   36.0988 S   0  0  0  0  0  0  0  0  0  0  0  0
    2.6783   -3.8938   36.9300 C   0  0  0  0  0  0  0  0  0  0  0  0
    5.2700   -4.0832   37.1223 O   0  0  0  0  0  0  0  0  0  0  0  0
    4.1639   -5.0049   35.0537 O   0  0  0  0  0  0  0  0  0  0  0  0
    4.3332   -2.1811   32.9931 C   0  0  0  0  0  0  0  0  0  0  0  0
    1.5029   -3.3527   29.4809 N   0  0  0  0  0  0  0  0  0  0  0  0
   -1.2427   -2.7782   31.8386 S   0  0  0  0  0  0  0  0  0  0  0  0
   -2.3180   -3.7303   31.6465 O   0  0  0  0  0  0  0  0  0  0  0  0
   -1.4465   -1.5693   32.6126 O   0  0  0  0  0  0  0  0  0  0  0  0
   -0.1188   -3.5968   32.6101 F   0  0  0  0  0  0  0  0  0  0  0  0
   -0.3099   -1.0876   27.7929 H   0  0  0  0  0  0  0  0  0  0  0  0
   -0.4756    0.1846   29.0083 H   0  0  0  0  0  0  0  0  0  0  0  0
   -1.7936   -0.1256   27.8690 H   0  0  0  0  0  0  0  0  0  0  0  0
   -2.3001   -2.2749   28.9174 H   0  0  0  0  0  0  0  0  0  0  0  0
   -2.2641   -1.0060   30.1192 H   0  0  0  0  0  0  0  0  0  0  0  0
    0.1920   -1.6346   30.5129 H   0  0  0  0  0  0  0  0  0  0  0  0
   -0.0214   -4.8158   28.0904 H   0  0  0  0  0  0  0  0  0  0  0  0
   -1.2630   -3.8244   28.1100 H   0  0  0  0  0  0  0  0  0  0  0  0
   -0.7191   -5.0741   30.8652 H   0  0  0  0  0  0  0  0  0  0  0  0
    1.3682   -5.6820   31.5762 H   0  0  0  0  0  0  0  0  0  0  0  0
    1.9676   -3.5746   31.4994 H   0  0  0  0  0  0  0  0  0  0  0  0
    3.9844   -4.7454   31.3277 H   0  0  0  0  0  0  0  0  0  0  0  0
    3.7697   -5.1534   29.6337 H   0  0  0  0  0  0  0  0  0  0  0  0
    5.5524   -3.4510   30.3116 H   0  0  0  0  0  0  0  0  0  0  0  0
    4.5983   -3.1418   28.8870 H   0  0  0  0  0  0  0  0  0  0  0  0
    3.5231   -1.3101   29.7719 H   0  0  0  0  0  0  0  0  0  0  0  0
    5.1291   -1.1582   30.4313 H   0  0  0  0  0  0  0  0  0  0  0  0
    1.9082   -0.6005   31.2131 H   0  0  0  0  0  0  0  0  0  0  0  0
    0.8015   -0.6481   33.4212 H   0  0  0  0  0  0  0  0  0  0  0  0
    1.9575   -1.5921   35.3617 H   0  0  0  0  0  0  0  0  0  0  0  0
    5.4246   -2.2114   35.4450 H   0  0  0  0  0  0  0  0  0  0  0  0
    2.5642   -4.7882   37.5472 H   0  0  0  0  0  0  0  0  0  0  0  0
    2.6752   -3.0072   37.5664 H   0  0  0  0  0  0  0  0  0  0  0  0
    1.8772   -3.8613   36.1910 H   0  0  0  0  0  0  0  0  0  0  0  0
    5.3312   -2.5979   32.8840 H   0  0  0  0  0  0  0  0  0  0  0  0
    1.7482   -3.8074   28.6074 H   0  0  0  0  0  0  0  0  0  0  0  0
  1  2  1  0
  2  3  1  0
  3  4  1  0
  4  5  1  0
  4  6  1  0
  6  7  1  0
  7  8  1  0
  8  9  1  0
  9 10  1  0
 10 11  1  0
 11 12  1  0
 12 13  2  0
 13 14  1  0
 14 15  2  0
 15 16  1  0
 16 17  1  0
 17 18  1  0
 18 19  1  0
 18 20  2  0
 18 21  2  0
 16 22  2  0
  8 23  1  0
  3 24  1  0
 24 25  2  0
 24 26  2  0
 24 27  1  0
 23  4  1  0
 22 12  1  0
  1 28  1  0
  1 29  1  0
  1 30  1  0
  2 31  1  0
  2 32  1  0
  3 33  1  0
  5 34  1  0
  5 35  1  0
  6 36  1  0
  7 37  1  0
  8 38  1  0
  9 39  1  0
  9 40  1  0
 10 41  1  0
 10 42  1  0
 11 43  1  0
 11 44  1  0
 13 45  1  0
 14 46  1  0
 15 47  1  0
 17 48  1  0
 19 49  1  0
 19 50  1  0
 19 51  1  0
 22 52  1  0
 23 53  1  0
M  END
>  <Energy>  (790) 
-142.54893450492051

>  <compound_id>  (790) 
3729

>  <target_id>  (790) 
1

>  <reference_id>  (790) 
130

>  <inspiration_ids>  (790) 
[129, 130]

>  <energy_score>  (790) 
-52.53395550331625

>  <distance_score>  (790) 
1.6129825148283456

>  <path>  (790) 
/opt/xchem-fragalysis-2/maxwin/BulkDock/SCRATCH/505734/C3729-P130/C3729-P130.minimised.mol

>  <scratch_subdir>  (790) 
/opt/xchem-fragalysis-2/maxwin/BulkDock/SCRATCH/505734/C3729-P130

>  <fragmenstein_runtime>  (790) 
5.555315017700195

>  <fragmenstein_outcome>  (790) 
too moved

>  <fragmenstein_mode>  (790) 
expansion

>  <fragmenstein_error>  (790) 


$$$$
C3730-P129
     RDKit          3D

 48 51  0  0  0  0  0  0  0  0999 V2000
    2.7612   -3.7293   37.4797 C   0  0  0  0  0  0  0  0  0  0  0  0
    4.2485   -3.7505   36.5012 S   0  0  0  0  0  0  0  0  0  0  0  0
    5.3401   -3.3855   37.3772 O   0  0  0  0  0  0  0  0  0  0  0  0
    4.2834   -4.9678   35.7198 O   0  0  0  0  0  0  0  0  0  0  0  0
    4.0114   -2.4160   35.5077 N   0  0  0  0  0  0  0  0  0  0  0  0
    3.4779   -2.5526   34.1944 C   0  0  0  0  0  0  0  0  0  0  0  0
    3.9266   -1.6695   33.2137 C   0  0  0  0  0  0  0  0  0  0  0  0
    3.4185   -1.7501   31.9235 C   0  0  0  0  0  0  0  0  0  0  0  0
    2.4489   -2.7052   31.6234 C   0  0  0  0  0  0  0  0  0  0  0  0
    1.9221   -3.5567   32.6142 C   0  0  0  0  0  0  0  0  0  0  0  0
    0.8818   -4.5623   32.2614 C   0  0  0  0  0  0  0  0  0  0  0  0
    0.5626   -5.6273   33.0338 C   0  0  0  0  0  0  0  0  0  0  0  0
   -0.2197   -6.6447   32.4841 N   0  0  0  0  0  0  0  0  0  0  0  0
   -0.9258   -7.6880   33.0472 C   0  0  0  0  0  0  0  0  0  0  0  0
   -1.1004   -7.8388   34.3808 N   0  0  0  0  0  0  0  0  0  0  0  0
   -1.4253   -8.4333   32.0825 N   0  0  0  0  0  0  0  0  0  0  0  0
   -1.1229   -7.8565   30.8703 N   0  0  0  0  0  0  0  0  0  0  0  0
   -0.4570   -6.7528   31.1221 C   0  0  0  0  0  0  0  0  0  0  0  0
   -0.1691   -5.6101   30.3202 C   0  0  0  0  0  0  0  0  0  0  0  0
    0.1534   -4.4783   30.9806 C   0  0  0  0  0  0  0  0  0  0  0  0
   -0.6546   -3.2143   30.7783 C   0  0  0  0  0  0  0  0  0  0  0  0
   -0.4242   -2.5755   29.4802 N   0  0  0  0  0  0  0  0  0  0  0  0
   -1.5247   -1.3015   29.2393 S   0  0  0  0  0  0  0  0  0  0  0  0
   -2.2597   -1.6466   28.0537 O   0  0  0  0  0  0  0  0  0  0  0  0
   -2.1681   -1.0044   30.5039 O   0  0  0  0  0  0  0  0  0  0  0  0
   -0.7513    0.1814   28.8082 C   0  0  0  0  0  0  0  0  0  0  0  0
   -1.0076    1.1402   27.8516 C   0  0  0  0  0  0  0  0  0  0  0  0
   -0.1510    2.2521   28.0533 C   0  0  0  0  0  0  0  0  0  0  0  0
    0.7294    2.1602   29.0510 N   0  0  0  0  0  0  0  0  0  0  0  0
    0.5105    0.7002   29.8081 S   0  0  0  0  0  0  0  0  0  0  0  0
    2.4433   -3.4459   33.9035 C   0  0  0  0  0  0  0  0  0  0  0  0
    2.8504   -4.5143   38.2345 H   0  0  0  0  0  0  0  0  0  0  0  0
    2.6769   -2.7583   37.9718 H   0  0  0  0  0  0  0  0  0  0  0  0
    1.8915   -3.9253   36.8546 H   0  0  0  0  0  0  0  0  0  0  0  0
    4.7651   -1.7377   35.6334 H   0  0  0  0  0  0  0  0  0  0  0  0
    4.6910   -0.9292   33.4339 H   0  0  0  0  0  0  0  0  0  0  0  0
    3.7893   -1.0851   31.1467 H   0  0  0  0  0  0  0  0  0  0  0  0
    2.1182   -2.7657   30.5885 H   0  0  0  0  0  0  0  0  0  0  0  0
    0.9169   -5.8004   34.0392 H   0  0  0  0  0  0  0  0  0  0  0  0
   -1.3960   -8.7927   34.6534 H   0  0  0  0  0  0  0  0  0  0  0  0
   -0.4007   -7.5066   35.0328 H   0  0  0  0  0  0  0  0  0  0  0  0
   -0.6618   -5.5605   29.3610 H   0  0  0  0  0  0  0  0  0  0  0  0
   -1.7124   -3.4907   30.8730 H   0  0  0  0  0  0  0  0  0  0  0  0
   -0.4449   -2.4940   31.5780 H   0  0  0  0  0  0  0  0  0  0  0  0
   -0.5826   -3.2001   28.6811 H   0  0  0  0  0  0  0  0  0  0  0  0
   -1.7874    1.0613   27.1039 H   0  0  0  0  0  0  0  0  0  0  0  0
   -0.1519    3.1685   27.4752 H   0  0  0  0  0  0  0  0  0  0  0  0
    2.0493   -4.0757   34.6881 H   0  0  0  0  0  0  0  0  0  0  0  0
  1  2  1  0
  2  3  2  0
  2  4  2  0
  2  5  1  0
  5  6  1  0
  6  7  2  0
  7  8  1  0
  8  9  2  0
  9 10  1  0
 10 11  1  0
 11 12  2  0
 12 13  1  0
 13 14  1  0
 14 15  1  0
 14 16  2  0
 16 17  1  0
 17 18  2  0
 18 19  1  0
 19 20  2  0
 20 21  1  0
 21 22  1  0
 22 23  1  0
 23 24  2  0
 23 25  2  0
 23 26  1  0
 26 27  2  0
 27 28  1  0
 28 29  2  0
 29 30  1  0
 10 31  2  0
 31  6  1  0
 20 11  1  0
 30 26  1  0
 18 13  1  0
  1 32  1  0
  1 33  1  0
  1 34  1  0
  5 35  1  0
  7 36  1  0
  8 37  1  0
  9 38  1  0
 12 39  1  0
 15 40  1  0
 15 41  1  0
 19 42  1  0
 21 43  1  0
 21 44  1  0
 22 45  1  0
 27 46  1  0
 28 47  1  0
 31 48  1  0
M  END
>  <Energy>  (791) 
-62.026321697891198

>  <compound_id>  (791) 
3730

>  <target_id>  (791) 
1

>  <reference_id>  (791) 
129

>  <inspiration_ids>  (791) 
[129, 131]

>  <energy_score>  (791) 
-64.78335119828

>  <distance_score>  (791) 
0.8835316787136402

>  <path>  (791) 
/opt/xchem-fragalysis-2/maxwin/BulkDock/SCRATCH/505734/C3730-P129/C3730-P129.minimised.mol

>  <scratch_subdir>  (791) 
/opt/xchem-fragalysis-2/maxwin/BulkDock/SCRATCH/505734/C3730-P129

>  <fragmenstein_runtime>  (791) 
2.29150652885437

>  <fragmenstein_outcome>  (791) 
acceptable

>  <fragmenstein_mode>  (791) 
expansion

>  <fragmenstein_error>  (791) 


$$$$
C3730-P131
     RDKit          3D

 48 51  0  0  0  0  0  0  0  0999 V2000
    2.7711   -3.7308   37.5030 C   0  0  0  0  0  0  0  0  0  0  0  0
    4.2521   -3.7393   36.5149 S   0  0  0  0  0  0  0  0  0  0  0  0
    5.3480   -3.3772   37.3868 O   0  0  0  0  0  0  0  0  0  0  0  0
    4.2864   -4.9513   35.7252 O   0  0  0  0  0  0  0  0  0  0  0  0
    4.0043   -2.3967   35.5324 N   0  0  0  0  0  0  0  0  0  0  0  0
    3.4849   -2.5403   34.2146 C   0  0  0  0  0  0  0  0  0  0  0  0
    3.9778   -1.6979   33.2192 C   0  0  0  0  0  0  0  0  0  0  0  0
    3.4933   -1.8016   31.9212 C   0  0  0  0  0  0  0  0  0  0  0  0
    2.5066   -2.7407   31.6282 C   0  0  0  0  0  0  0  0  0  0  0  0
    1.9361   -3.5456   32.6345 C   0  0  0  0  0  0  0  0  0  0  0  0
    0.8773   -4.5309   32.2886 C   0  0  0  0  0  0  0  0  0  0  0  0
    0.5823   -5.6136   33.0446 C   0  0  0  0  0  0  0  0  0  0  0  0
   -0.1940   -6.6282   32.4827 N   0  0  0  0  0  0  0  0  0  0  0  0
   -0.8813   -7.6898   33.0321 C   0  0  0  0  0  0  0  0  0  0  0  0
   -1.0426   -7.8630   34.3647 N   0  0  0  0  0  0  0  0  0  0  0  0
   -1.3830   -8.4222   32.0588 N   0  0  0  0  0  0  0  0  0  0  0  0
   -1.1001   -7.8180   30.8545 N   0  0  0  0  0  0  0  0  0  0  0  0
   -0.4412   -6.7126   31.1212 C   0  0  0  0  0  0  0  0  0  0  0  0
   -0.1677   -5.5512   30.3404 C   0  0  0  0  0  0  0  0  0  0  0  0
    0.1334   -4.4258   31.0191 C   0  0  0  0  0  0  0  0  0  0  0  0
   -0.6265   -3.1315   30.8196 C   0  0  0  0  0  0  0  0  0  0  0  0
   -0.7471   -2.7073   29.4244 N   0  0  0  0  0  0  0  0  0  0  0  0
   -1.7975   -1.3832   29.2532 S   0  0  0  0  0  0  0  0  0  0  0  0
   -2.5714   -1.6349   28.0691 O   0  0  0  0  0  0  0  0  0  0  0  0
   -2.4191   -1.1189   30.5360 O   0  0  0  0  0  0  0  0  0  0  0  0
   -0.9583    0.0833   28.8711 C   0  0  0  0  0  0  0  0  0  0  0  0
   -1.1504    1.0620   27.9187 C   0  0  0  0  0  0  0  0  0  0  0  0
   -0.2530    2.1359   28.1493 C   0  0  0  0  0  0  0  0  0  0  0  0
    0.5985    2.0000   29.1667 N   0  0  0  0  0  0  0  0  0  0  0  0
    0.3009    0.5436   29.9038 S   0  0  0  0  0  0  0  0  0  0  0  0
    2.4305   -3.4110   33.9306 C   0  0  0  0  0  0  0  0  0  0  0  0
    2.8717   -4.5158   38.2563 H   0  0  0  0  0  0  0  0  0  0  0  0
    2.6826   -2.7611   37.9971 H   0  0  0  0  0  0  0  0  0  0  0  0
    1.8986   -3.9334   36.8843 H   0  0  0  0  0  0  0  0  0  0  0  0
    4.7569   -1.7177   35.6608 H   0  0  0  0  0  0  0  0  0  0  0  0
    4.7600   -0.9749   33.4340 H   0  0  0  0  0  0  0  0  0  0  0  0
    3.8983   -1.1703   31.1336 H   0  0  0  0  0  0  0  0  0  0  0  0
    2.1941   -2.8273   30.5886 H   0  0  0  0  0  0  0  0  0  0  0  0
    0.9611   -5.8066   34.0374 H   0  0  0  0  0  0  0  0  0  0  0  0
   -1.3158   -8.8288   34.6190 H   0  0  0  0  0  0  0  0  0  0  0  0
   -0.3379   -7.5343   35.0127 H   0  0  0  0  0  0  0  0  0  0  0  0
   -0.6391   -5.4983   29.3748 H   0  0  0  0  0  0  0  0  0  0  0  0
   -1.6261   -3.3134   31.2375 H   0  0  0  0  0  0  0  0  0  0  0  0
   -0.1819   -2.3149   31.3969 H   0  0  0  0  0  0  0  0  0  0  0  0
   -1.1035   -3.4076   28.7633 H   0  0  0  0  0  0  0  0  0  0  0  0
   -1.9122    1.0196   27.1499 H   0  0  0  0  0  0  0  0  0  0  0  0
   -0.2018    3.0557   27.5790 H   0  0  0  0  0  0  0  0  0  0  0  0
    1.9992   -4.0042   34.7243 H   0  0  0  0  0  0  0  0  0  0  0  0
  1  2  1  0
  2  3  2  0
  2  4  2  0
  2  5  1  0
  5  6  1  0
  6  7  2  0
  7  8  1  0
  8  9  2  0
  9 10  1  0
 10 11  1  0
 11 12  2  0
 12 13  1  0
 13 14  1  0
 14 15  1  0
 14 16  2  0
 16 17  1  0
 17 18  2  0
 18 19  1  0
 19 20  2  0
 20 21  1  0
 21 22  1  0
 22 23  1  0
 23 24  2  0
 23 25  2  0
 23 26  1  0
 26 27  2  0
 27 28  1  0
 28 29  2  0
 29 30  1  0
 10 31  2  0
 31  6  1  0
 20 11  1  0
 30 26  1  0
 18 13  1  0
  1 32  1  0
  1 33  1  0
  1 34  1  0
  5 35  1  0
  7 36  1  0
  8 37  1  0
  9 38  1  0
 12 39  1  0
 15 40  1  0
 15 41  1  0
 19 42  1  0
 21 43  1  0
 21 44  1  0
 22 45  1  0
 27 46  1  0
 28 47  1  0
 31 48  1  0
M  END
>  <Energy>  (792) 
-62.481556028775628

>  <compound_id>  (792) 
3730

>  <target_id>  (792) 
1

>  <reference_id>  (792) 
131

>  <inspiration_ids>  (792) 
[129, 131]

>  <energy_score>  (792) 
-65.23858552916195

>  <distance_score>  (792) 
0.8417661802047273

>  <path>  (792) 
/opt/xchem-fragalysis-2/maxwin/BulkDock/SCRATCH/505734/C3730-P131/C3730-P131.minimised.mol

>  <scratch_subdir>  (792) 
/opt/xchem-fragalysis-2/maxwin/BulkDock/SCRATCH/505734/C3730-P131

>  <fragmenstein_runtime>  (792) 
3.079317808151245

>  <fragmenstein_outcome>  (792) 
acceptable

>  <fragmenstein_mode>  (792) 
expansion

>  <fragmenstein_error>  (792) 


$$$$
C3730-P129
     RDKit          2D

  0  0  0  0  0  0  0  0  0  0999 V2000
M  END
>  <compound_id>  (793) 
3730

>  <target_id>  (793) 
1

>  <reference_id>  (793) 
129

>  <inspiration_ids>  (793) 
[129, 132]

>  <energy_score>  (793) 
nan

>  <distance_score>  (793) 
nan

>  <path>  (793) 
/opt/xchem-fragalysis-2/maxwin/BulkDock/SCRATCH/505734/C3730-P129/C3730-P129.minimised.mol

>  <scratch_subdir>  (793) 
/opt/xchem-fragalysis-2/maxwin/BulkDock/SCRATCH/505734/C3730-P129

>  <fragmenstein_runtime>  (793) 
0.22732830047607422

>  <fragmenstein_outcome>  (793) 
too distant

>  <fragmenstein_mode>  (793) 
expansion

>  <fragmenstein_error>  (793) 
DistanceError: hit0+hit1

$$$$
C3731-P129
     RDKit          3D

 53 56  0  0  0  0  0  0  0  0999 V2000
    2.7611   -3.6402   37.3573 C   0  0  0  0  0  0  0  0  0  0  0  0
    4.3528   -3.7411   36.5617 S   0  0  0  0  0  0  0  0  0  0  0  0
    5.3347   -3.2534   37.5051 O   0  0  0  0  0  0  0  0  0  0  0  0
    4.4922   -5.0400   35.9391 O   0  0  0  0  0  0  0  0  0  0  0  0
    4.2200   -2.5441   35.3971 N   0  0  0  0  0  0  0  0  0  0  0  0
    3.7426   -2.7962   34.0798 C   0  0  0  0  0  0  0  0  0  0  0  0
    4.0689   -1.8718   33.0870 C   0  0  0  0  0  0  0  0  0  0  0  0
    3.5661   -2.0236   31.7994 C   0  0  0  0  0  0  0  0  0  0  0  0
    2.7123   -3.0875   31.5133 C   0  0  0  0  0  0  0  0  0  0  0  0
    2.3140   -3.9936   32.5147 C   0  0  0  0  0  0  0  0  0  0  0  0
    1.2806   -5.0230   32.2254 C   0  0  0  0  0  0  0  0  0  0  0  0
    0.8138   -5.9637   33.0913 C   0  0  0  0  0  0  0  0  0  0  0  0
   -0.1785   -6.8568   32.6440 N   0  0  0  0  0  0  0  0  0  0  0  0
   -1.0287   -7.7289   33.2891 C   0  0  0  0  0  0  0  0  0  0  0  0
   -1.1263   -7.8385   34.6338 N   0  0  0  0  0  0  0  0  0  0  0  0
   -1.7095   -8.4060   32.3872 N   0  0  0  0  0  0  0  0  0  0  0  0
   -1.3656   -7.9677   31.1320 N   0  0  0  0  0  0  0  0  0  0  0  0
   -0.4968   -7.0036   31.2960 C   0  0  0  0  0  0  0  0  0  0  0  0
    0.1761   -6.1138   30.3981 C   0  0  0  0  0  0  0  0  0  0  0  0
    0.4622   -4.9240   30.9867 C   0  0  0  0  0  0  0  0  0  0  0  0
   -0.7066   -3.9533   31.1670 C   0  0  0  0  0  0  0  0  0  0  0  0
   -0.4209   -2.8421   32.0716 N   0  0  0  0  0  0  0  0  0  0  0  0
   -1.4877   -1.5579   32.0321 S   0  0  0  0  0  0  0  0  0  0  0  0
   -2.8092   -2.0885   31.7830 O   0  0  0  0  0  0  0  0  0  0  0  0
   -1.2050   -0.7483   33.1972 O   0  0  0  0  0  0  0  0  0  0  0  0
   -0.9288   -0.6844   30.6012 C   0  0  0  0  0  0  0  0  0  0  0  0
   -0.0850    0.4176   30.7460 C   0  0  0  0  0  0  0  0  0  0  0  0
    0.2885    1.1449   29.6157 C   0  0  0  0  0  0  0  0  0  0  0  0
   -0.1816    0.7622   28.3617 C   0  0  0  0  0  0  0  0  0  0  0  0
    0.1365    1.4840   27.2493 O   0  0  0  0  0  0  0  0  0  0  0  0
   -0.9973   -0.3501   28.2133 C   0  0  0  0  0  0  0  0  0  0  0  0
   -1.3766   -1.0762   29.3368 C   0  0  0  0  0  0  0  0  0  0  0  0
    2.8422   -3.8248   33.7935 C   0  0  0  0  0  0  0  0  0  0  0  0
    2.6172   -2.6236   37.7288 H   0  0  0  0  0  0  0  0  0  0  0  0
    2.7651   -4.3397   38.1965 H   0  0  0  0  0  0  0  0  0  0  0  0
    1.9716   -3.9143   36.6586 H   0  0  0  0  0  0  0  0  0  0  0  0
    4.9412   -1.8299   35.5093 H   0  0  0  0  0  0  0  0  0  0  0  0
    4.7239   -1.0313   33.3002 H   0  0  0  0  0  0  0  0  0  0  0  0
    3.8323   -1.3146   31.0191 H   0  0  0  0  0  0  0  0  0  0  0  0
    2.3318   -3.1677   30.4965 H   0  0  0  0  0  0  0  0  0  0  0  0
    1.1377   -6.0890   34.1138 H   0  0  0  0  0  0  0  0  0  0  0  0
   -0.3381   -7.6028   35.2238 H   0  0  0  0  0  0  0  0  0  0  0  0
   -1.4760   -8.7721   34.9174 H   0  0  0  0  0  0  0  0  0  0  0  0
    0.9995   -6.6413   29.9196 H   0  0  0  0  0  0  0  0  0  0  0  0
   -1.5660   -4.4860   31.5739 H   0  0  0  0  0  0  0  0  0  0  0  0
   -0.9603   -3.5886   30.1705 H   0  0  0  0  0  0  0  0  0  0  0  0
   -0.1352   -3.0452   33.0269 H   0  0  0  0  0  0  0  0  0  0  0  0
    0.2699    0.7260   31.7262 H   0  0  0  0  0  0  0  0  0  0  0  0
    0.9320    2.0128   29.7285 H   0  0  0  0  0  0  0  0  0  0  0  0
    0.4278    2.3664   27.5349 H   0  0  0  0  0  0  0  0  0  0  0  0
   -1.3662   -0.6321   27.2309 H   0  0  0  0  0  0  0  0  0  0  0  0
   -2.0301   -1.9310   29.1974 H   0  0  0  0  0  0  0  0  0  0  0  0
    2.5346   -4.5017   34.5773 H   0  0  0  0  0  0  0  0  0  0  0  0
  1  2  1  0
  2  3  2  0
  2  4  2  0
  2  5  1  0
  5  6  1  0
  6  7  2  0
  7  8  1  0
  8  9  2  0
  9 10  1  0
 10 11  1  0
 11 12  2  0
 12 13  1  0
 13 14  1  0
 14 15  1  0
 14 16  2  0
 16 17  1  0
 17 18  2  0
 18 19  1  0
 19 20  2  0
 20 21  1  0
 21 22  1  0
 22 23  1  0
 23 24  2  0
 23 25  2  0
 23 26  1  0
 26 27  2  0
 27 28  1  0
 28 29  2  0
 29 30  1  0
 29 31  1  0
 31 32  2  0
 10 33  2  0
 33  6  1  0
 20 11  1  0
 32 26  1  0
 18 13  1  0
  1 34  1  0
  1 35  1  0
  1 36  1  0
  5 37  1  0
  7 38  1  0
  8 39  1  0
  9 40  1  0
 12 41  1  0
 15 42  1  0
 15 43  1  0
 19 44  1  0
 21 45  1  0
 21 46  1  0
 22 47  1  0
 27 48  1  0
 28 49  1  0
 30 50  1  0
 31 51  1  0
 32 52  1  0
 33 53  1  0
M  END
>  <Energy>  (794) 
-5.6882918636397086

>  <compound_id>  (794) 
3731

>  <target_id>  (794) 
1

>  <reference_id>  (794) 
129

>  <inspiration_ids>  (794) 
[129, 134]

>  <energy_score>  (794) 
-20.415912507383638

>  <distance_score>  (794) 
0.7889887495234494

>  <path>  (794) 
/opt/xchem-fragalysis-2/maxwin/BulkDock/SCRATCH/505734/C3731-P129/C3731-P129.minimised.mol

>  <scratch_subdir>  (794) 
/opt/xchem-fragalysis-2/maxwin/BulkDock/SCRATCH/505734/C3731-P129

>  <fragmenstein_runtime>  (794) 
3.441316604614258

>  <fragmenstein_outcome>  (794) 
acceptable

>  <fragmenstein_mode>  (794) 
expansion

>  <fragmenstein_error>  (794) 


$$$$
C3731-P134
     RDKit          3D

 53 56  0  0  0  0  0  0  0  0999 V2000
    2.7891   -3.6212   37.3604 C   0  0  0  0  0  0  0  0  0  0  0  0
    4.3702   -3.7348   36.5451 S   0  0  0  0  0  0  0  0  0  0  0  0
    5.3694   -3.2698   37.4815 O   0  0  0  0  0  0  0  0  0  0  0  0
    4.4847   -5.0282   35.9059 O   0  0  0  0  0  0  0  0  0  0  0  0
    4.2419   -2.5243   35.3930 N   0  0  0  0  0  0  0  0  0  0  0  0
    3.7443   -2.7565   34.0797 C   0  0  0  0  0  0  0  0  0  0  0  0
    4.0690   -1.8291   33.0893 C   0  0  0  0  0  0  0  0  0  0  0  0
    3.5391   -1.9585   31.8093 C   0  0  0  0  0  0  0  0  0  0  0  0
    2.6604   -3.0031   31.5280 C   0  0  0  0  0  0  0  0  0  0  0  0
    2.2695   -3.9128   32.5276 C   0  0  0  0  0  0  0  0  0  0  0  0
    1.2174   -4.9225   32.2515 C   0  0  0  0  0  0  0  0  0  0  0  0
    0.7888   -5.8934   33.1027 C   0  0  0  0  0  0  0  0  0  0  0  0
   -0.2208   -6.7686   32.6620 N   0  0  0  0  0  0  0  0  0  0  0  0
   -1.0570   -7.6488   33.3086 C   0  0  0  0  0  0  0  0  0  0  0  0
   -1.1333   -7.7696   34.6536 N   0  0  0  0  0  0  0  0  0  0  0  0
   -1.7435   -8.3196   32.4066 N   0  0  0  0  0  0  0  0  0  0  0  0
   -1.4326   -7.8545   31.1526 N   0  0  0  0  0  0  0  0  0  0  0  0
   -0.5810   -6.8771   31.3203 C   0  0  0  0  0  0  0  0  0  0  0  0
    0.0452   -5.9444   30.4336 C   0  0  0  0  0  0  0  0  0  0  0  0
    0.3357   -4.7760   31.0602 C   0  0  0  0  0  0  0  0  0  0  0  0
   -0.8505   -3.8617   31.3828 C   0  0  0  0  0  0  0  0  0  0  0  0
   -0.4660   -2.6952   32.1676 N   0  0  0  0  0  0  0  0  0  0  0  0
   -1.4888   -1.3799   32.1040 S   0  0  0  0  0  0  0  0  0  0  0  0
   -2.8357   -1.8600   31.8925 O   0  0  0  0  0  0  0  0  0  0  0  0
   -1.1532   -0.5438   33.2361 O   0  0  0  0  0  0  0  0  0  0  0  0
   -0.9212   -0.5773   30.6363 C   0  0  0  0  0  0  0  0  0  0  0  0
   -0.0994    0.5458   30.7364 C   0  0  0  0  0  0  0  0  0  0  0  0
    0.2490    1.2412   29.5799 C   0  0  0  0  0  0  0  0  0  0  0  0
   -0.2191    0.8020   28.3446 C   0  0  0  0  0  0  0  0  0  0  0  0
    0.0588    1.5083   27.2129 O   0  0  0  0  0  0  0  0  0  0  0  0
   -0.9962   -0.3420   28.2374 C   0  0  0  0  0  0  0  0  0  0  0  0
   -1.3540   -1.0339   29.3888 C   0  0  0  0  0  0  0  0  0  0  0  0
    2.8233   -3.7668   33.7982 C   0  0  0  0  0  0  0  0  0  0  0  0
    2.6632   -2.6066   37.7437 H   0  0  0  0  0  0  0  0  0  0  0  0
    2.7939   -4.3291   38.1926 H   0  0  0  0  0  0  0  0  0  0  0  0
    1.9876   -3.8779   36.6690 H   0  0  0  0  0  0  0  0  0  0  0  0
    4.9740   -1.8212   35.5047 H   0  0  0  0  0  0  0  0  0  0  0  0
    4.7406   -1.0009   33.2994 H   0  0  0  0  0  0  0  0  0  0  0  0
    3.8005   -1.2429   31.0332 H   0  0  0  0  0  0  0  0  0  0  0  0
    2.2524   -3.0624   30.5205 H   0  0  0  0  0  0  0  0  0  0  0  0
    1.1556   -6.0575   34.1052 H   0  0  0  0  0  0  0  0  0  0  0  0
   -0.3462   -7.5134   35.2366 H   0  0  0  0  0  0  0  0  0  0  0  0
   -1.4380   -8.7211   34.9323 H   0  0  0  0  0  0  0  0  0  0  0  0
    0.8497   -6.4360   29.8941 H   0  0  0  0  0  0  0  0  0  0  0  0
   -1.6012   -4.4033   31.9614 H   0  0  0  0  0  0  0  0  0  0  0  0
   -1.2942   -3.5698   30.4302 H   0  0  0  0  0  0  0  0  0  0  0  0
   -0.1095   -2.8366   33.1103 H   0  0  0  0  0  0  0  0  0  0  0  0
    0.2465    0.9038   31.7029 H   0  0  0  0  0  0  0  0  0  0  0  0
    0.8663    2.1319   29.6553 H   0  0  0  0  0  0  0  0  0  0  0  0
    0.1798    2.4398   27.4667 H   0  0  0  0  0  0  0  0  0  0  0  0
   -1.3650   -0.6674   27.2683 H   0  0  0  0  0  0  0  0  0  0  0  0
   -1.9927   -1.9031   29.2842 H   0  0  0  0  0  0  0  0  0  0  0  0
    2.5155   -4.4443   34.5815 H   0  0  0  0  0  0  0  0  0  0  0  0
  1  2  1  0
  2  3  2  0
  2  4  2  0
  2  5  1  0
  5  6  1  0
  6  7  2  0
  7  8  1  0
  8  9  2  0
  9 10  1  0
 10 11  1  0
 11 12  2  0
 12 13  1  0
 13 14  1  0
 14 15  1  0
 14 16  2  0
 16 17  1  0
 17 18  2  0
 18 19  1  0
 19 20  2  0
 20 21  1  0
 21 22  1  0
 22 23  1  0
 23 24  2  0
 23 25  2  0
 23 26  1  0
 26 27  2  0
 27 28  1  0
 28 29  2  0
 29 30  1  0
 29 31  1  0
 31 32  2  0
 10 33  2  0
 33  6  1  0
 20 11  1  0
 32 26  1  0
 18 13  1  0
  1 34  1  0
  1 35  1  0
  1 36  1  0
  5 37  1  0
  7 38  1  0
  8 39  1  0
  9 40  1  0
 12 41  1  0
 15 42  1  0
 15 43  1  0
 19 44  1  0
 21 45  1  0
 21 46  1  0
 22 47  1  0
 27 48  1  0
 28 49  1  0
 30 50  1  0
 31 51  1  0
 32 52  1  0
 33 53  1  0
M  END
>  <Energy>  (795) 
-4.5801799906723719

>  <compound_id>  (795) 
3731

>  <target_id>  (795) 
1

>  <reference_id>  (795) 
134

>  <inspiration_ids>  (795) 
[129, 134]

>  <energy_score>  (795) 
-19.307800634416168

>  <distance_score>  (795) 
0.7578382948595677

>  <path>  (795) 
/opt/xchem-fragalysis-2/maxwin/BulkDock/SCRATCH/505734/C3731-P134/C3731-P134.minimised.mol

>  <scratch_subdir>  (795) 
/opt/xchem-fragalysis-2/maxwin/BulkDock/SCRATCH/505734/C3731-P134

>  <fragmenstein_runtime>  (795) 
3.1641969680786133

>  <fragmenstein_outcome>  (795) 
acceptable

>  <fragmenstein_mode>  (795) 
expansion

>  <fragmenstein_error>  (795) 


$$$$
C3732-P129
     RDKit          3D

 41 43  0  0  0  0  0  0  0  0999 V2000
    3.1109   -3.5606   37.3601 C   0  0  0  0  0  0  0  0  0  0  0  0
    4.5330   -3.6702   36.2887 S   0  0  0  0  0  0  0  0  0  0  0  0
    5.6047   -2.9315   36.9144 O   0  0  0  0  0  0  0  0  0  0  0  0
    4.6961   -5.0503   35.8921 O   0  0  0  0  0  0  0  0  0  0  0  0
    4.0874   -2.7665   34.9318 N   0  0  0  0  0  0  0  0  0  0  0  0
    2.7934   -3.0228   34.2922 C   0  0  0  0  0  0  0  0  0  0  0  0
    2.4277   -1.9295   33.2901 C   0  0  0  0  0  0  0  0  0  0  0  0
    1.2877   -2.3753   32.3555 C   0  0  0  0  0  0  0  0  0  0  0  0
    0.4256   -3.4824   32.9738 C   0  0  0  0  0  0  0  0  0  0  0  0
    1.2603   -4.7528   33.3167 C   0  0  0  0  0  0  0  0  0  0  0  0
    0.7568   -5.4689   34.6126 C   0  0  0  0  0  0  0  0  0  0  0  0
   -0.6223   -6.1105   34.4957 C   0  0  0  0  0  0  0  0  0  0  0  0
   -0.7752   -6.8398   33.2227 C   0  0  0  0  0  0  0  0  0  0  0  0
   -1.6424   -7.7726   32.9013 N   0  0  0  0  0  0  0  0  0  0  0  0
   -1.5044   -8.0282   31.5567 N   0  0  0  0  0  0  0  0  0  0  0  0
   -0.5534   -7.2525   31.1031 C   0  0  0  0  0  0  0  0  0  0  0  0
   -0.1758   -7.0884   29.8304 N   0  0  0  0  0  0  0  0  0  0  0  0
   -0.0113   -6.5525   32.1312 N   0  0  0  0  0  0  0  0  0  0  0  0
    1.1864   -5.7494   32.1435 C   0  0  0  0  0  0  0  0  0  0  0  0
    2.7468   -4.3475   33.5443 C   0  0  0  0  0  0  0  0  0  0  0  0
    3.4064   -3.9489   38.3380 H   0  0  0  0  0  0  0  0  0  0  0  0
    2.8182   -2.5139   37.4588 H   0  0  0  0  0  0  0  0  0  0  0  0
    2.3025   -4.1721   36.9643 H   0  0  0  0  0  0  0  0  0  0  0  0
    4.3502   -1.7853   35.0501 H   0  0  0  0  0  0  0  0  0  0  0  0
    2.0325   -2.9838   35.0773 H   0  0  0  0  0  0  0  0  0  0  0  0
    3.2947   -1.6352   32.6852 H   0  0  0  0  0  0  0  0  0  0  0  0
    2.1229   -1.0291   33.8385 H   0  0  0  0  0  0  0  0  0  0  0  0
    0.6634   -1.5095   32.1063 H   0  0  0  0  0  0  0  0  0  0  0  0
    1.7113   -2.7313   31.4081 H   0  0  0  0  0  0  0  0  0  0  0  0
   -0.4000   -3.7254   32.2939 H   0  0  0  0  0  0  0  0  0  0  0  0
   -0.0445   -3.0850   33.8829 H   0  0  0  0  0  0  0  0  0  0  0  0
    0.7381   -4.7741   35.4581 H   0  0  0  0  0  0  0  0  0  0  0  0
    1.4715   -6.2604   34.8797 H   0  0  0  0  0  0  0  0  0  0  0  0
   -0.7954   -6.7830   35.3431 H   0  0  0  0  0  0  0  0  0  0  0  0
   -1.3759   -5.3240   34.5487 H   0  0  0  0  0  0  0  0  0  0  0  0
   -0.8602   -7.5139   29.2045 H   0  0  0  0  0  0  0  0  0  0  0  0
    0.0056   -6.1398   29.5112 H   0  0  0  0  0  0  0  0  0  0  0  0
    1.2776   -5.2341   31.1814 H   0  0  0  0  0  0  0  0  0  0  0  0
    2.0111   -6.4616   32.2199 H   0  0  0  0  0  0  0  0  0  0  0  0
    3.2801   -4.2575   32.5871 H   0  0  0  0  0  0  0  0  0  0  0  0
    3.2567   -5.1570   34.0693 H   0  0  0  0  0  0  0  0  0  0  0  0
  1  2  1  0
  2  3  2  0
  2  4  2  0
  2  5  1  0
  5  6  1  0
  6  7  1  0
  7  8  1  0
  8  9  1  0
  9 10  1  0
 10 11  1  0
 11 12  1  0
 12 13  1  0
 13 14  2  0
 14 15  1  0
 15 16  2  0
 16 17  1  0
 16 18  1  0
 18 19  1  0
 10 20  1  0
 20  6  1  0
 19 10  1  0
 18 13  1  0
  1 21  1  0
  1 22  1  0
  1 23  1  0
  5 24  1  0
  6 25  1  0
  7 26  1  0
  7 27  1  0
  8 28  1  0
  8 29  1  0
  9 30  1  0
  9 31  1  0
 11 32  1  0
 11 33  1  0
 12 34  1  0
 12 35  1  0
 17 36  1  0
 17 37  1  0
 19 38  1  0
 19 39  1  0
 20 40  1  0
 20 41  1  0
M  END
>  <Energy>  (796) 
-55.78007208497381

>  <compound_id>  (796) 
3732

>  <target_id>  (796) 
1

>  <reference_id>  (796) 
129

>  <inspiration_ids>  (796) 
[129, 135]

>  <energy_score>  (796) 
-57.53655708005962

>  <distance_score>  (796) 
1.6556234745464544

>  <path>  (796) 
/opt/xchem-fragalysis-2/maxwin/BulkDock/SCRATCH/505734/C3732-P129/C3732-P129.minimised.mol

>  <scratch_subdir>  (796) 
/opt/xchem-fragalysis-2/maxwin/BulkDock/SCRATCH/505734/C3732-P129

>  <fragmenstein_runtime>  (796) 
2.3158302307128906

>  <fragmenstein_outcome>  (796) 
too moved

>  <fragmenstein_mode>  (796) 
expansion

>  <fragmenstein_error>  (796) 


$$$$
C3732-P135
     RDKit          3D

 41 43  0  0  0  0  0  0  0  0999 V2000
    3.1446   -3.4905   37.4113 C   0  0  0  0  0  0  0  0  0  0  0  0
    4.5391   -3.6596   36.3113 S   0  0  0  0  0  0  0  0  0  0  0  0
    5.6437   -2.9403   36.9010 O   0  0  0  0  0  0  0  0  0  0  0  0
    4.6525   -5.0510   35.9373 O   0  0  0  0  0  0  0  0  0  0  0  0
    4.0866   -2.7680   34.9475 N   0  0  0  0  0  0  0  0  0  0  0  0
    2.7914   -3.0455   34.3238 C   0  0  0  0  0  0  0  0  0  0  0  0
    2.3533   -1.9339   33.3745 C   0  0  0  0  0  0  0  0  0  0  0  0
    1.1862   -2.3925   32.4793 C   0  0  0  0  0  0  0  0  0  0  0  0
    0.3996   -3.5574   33.0958 C   0  0  0  0  0  0  0  0  0  0  0  0
    1.3004   -4.8040   33.3530 C   0  0  0  0  0  0  0  0  0  0  0  0
    0.8928   -5.5960   34.6382 C   0  0  0  0  0  0  0  0  0  0  0  0
   -0.4701   -6.2799   34.5716 C   0  0  0  0  0  0  0  0  0  0  0  0
   -0.6996   -6.9185   33.2607 C   0  0  0  0  0  0  0  0  0  0  0  0
   -1.6044   -7.8102   32.9241 N   0  0  0  0  0  0  0  0  0  0  0  0
   -1.5192   -8.0030   31.5646 N   0  0  0  0  0  0  0  0  0  0  0  0
   -0.5693   -7.2241   31.1144 C   0  0  0  0  0  0  0  0  0  0  0  0
   -0.2393   -7.0046   29.8382 N   0  0  0  0  0  0  0  0  0  0  0  0
    0.0219   -6.5817   32.1532 N   0  0  0  0  0  0  0  0  0  0  0  0
    1.2062   -5.7577   32.1492 C   0  0  0  0  0  0  0  0  0  0  0  0
    2.7778   -4.3429   33.5276 C   0  0  0  0  0  0  0  0  0  0  0  0
    3.4555   -3.8574   38.3927 H   0  0  0  0  0  0  0  0  0  0  0  0
    2.8769   -2.4352   37.4875 H   0  0  0  0  0  0  0  0  0  0  0  0
    2.3126   -4.0943   37.0545 H   0  0  0  0  0  0  0  0  0  0  0  0
    4.3490   -1.7852   35.0485 H   0  0  0  0  0  0  0  0  0  0  0  0
    2.0474   -3.0661   35.1248 H   0  0  0  0  0  0  0  0  0  0  0  0
    3.1839   -1.5960   32.7421 H   0  0  0  0  0  0  0  0  0  0  0  0
    2.0454   -1.0599   33.9623 H   0  0  0  0  0  0  0  0  0  0  0  0
    0.5163   -1.5450   32.2939 H   0  0  0  0  0  0  0  0  0  0  0  0
    1.5760   -2.6960   31.4996 H   0  0  0  0  0  0  0  0  0  0  0  0
   -0.4469   -3.8089   32.4454 H   0  0  0  0  0  0  0  0  0  0  0  0
   -0.0435   -3.2137   34.0397 H   0  0  0  0  0  0  0  0  0  0  0  0
    0.9047   -4.9452   35.5177 H   0  0  0  0  0  0  0  0  0  0  0  0
    1.6463   -6.3749   34.8242 H   0  0  0  0  0  0  0  0  0  0  0  0
   -0.5524   -7.0230   35.3727 H   0  0  0  0  0  0  0  0  0  0  0  0
   -1.2411   -5.5308   34.7523 H   0  0  0  0  0  0  0  0  0  0  0  0
   -0.9945   -7.2912   29.2148 H   0  0  0  0  0  0  0  0  0  0  0  0
    0.0694   -6.0742   29.5693 H   0  0  0  0  0  0  0  0  0  0  0  0
    1.2520   -5.2040   31.2057 H   0  0  0  0  0  0  0  0  0  0  0  0
    2.0483   -6.4516   32.1692 H   0  0  0  0  0  0  0  0  0  0  0  0
    3.2598   -4.1917   32.5512 H   0  0  0  0  0  0  0  0  0  0  0  0
    3.3520   -5.1443   33.9964 H   0  0  0  0  0  0  0  0  0  0  0  0
  1  2  1  0
  2  3  2  0
  2  4  2  0
  2  5  1  0
  5  6  1  0
  6  7  1  0
  7  8  1  0
  8  9  1  0
  9 10  1  0
 10 11  1  0
 11 12  1  0
 12 13  1  0
 13 14  2  0
 14 15  1  0
 15 16  2  0
 16 17  1  0
 16 18  1  0
 18 19  1  0
 10 20  1  0
 20  6  1  0
 19 10  1  0
 18 13  1  0
  1 21  1  0
  1 22  1  0
  1 23  1  0
  5 24  1  0
  6 25  1  0
  7 26  1  0
  7 27  1  0
  8 28  1  0
  8 29  1  0
  9 30  1  0
  9 31  1  0
 11 32  1  0
 11 33  1  0
 12 34  1  0
 12 35  1  0
 17 36  1  0
 17 37  1  0
 19 38  1  0
 19 39  1  0
 20 40  1  0
 20 41  1  0
M  END
>  <Energy>  (797) 
-55.466896645211818

>  <compound_id>  (797) 
3732

>  <target_id>  (797) 
1

>  <reference_id>  (797) 
135

>  <inspiration_ids>  (797) 
[129, 135]

>  <energy_score>  (797) 
-57.223381640297276

>  <distance_score>  (797) 
1.6880765543672749

>  <path>  (797) 
/opt/xchem-fragalysis-2/maxwin/BulkDock/SCRATCH/505734/C3732-P135/C3732-P135.minimised.mol

>  <scratch_subdir>  (797) 
/opt/xchem-fragalysis-2/maxwin/BulkDock/SCRATCH/505734/C3732-P135

>  <fragmenstein_runtime>  (797) 
2.316063404083252

>  <fragmenstein_outcome>  (797) 
too moved

>  <fragmenstein_mode>  (797) 
expansion

>  <fragmenstein_error>  (797) 


$$$$
C3734-P129
     RDKit          3D

 55 58  0  0  0  0  0  0  0  0999 V2000
   -0.8978   -4.5254   34.9553 C   0  0  0  0  0  0  0  0  0  0  0  0
   -0.3202   -5.0776   33.6992 C   0  0  0  0  0  0  0  0  0  0  0  0
    0.6948   -4.4483   33.0357 C   0  0  0  0  0  0  0  0  0  0  0  0
    1.3280   -3.1259   33.1992 C   0  0  0  0  0  0  0  0  0  0  0  0
    1.6242   -2.3604   32.0614 C   0  0  0  0  0  0  0  0  0  0  0  0
    2.5660   -1.3300   32.1290 C   0  0  0  0  0  0  0  0  0  0  0  0
    3.2579   -1.0944   33.3189 C   0  0  0  0  0  0  0  0  0  0  0  0
    2.9609   -1.8523   34.4482 C   0  0  0  0  0  0  0  0  0  0  0  0
    3.7216   -1.7021   35.6469 N   0  0  0  0  0  0  0  0  0  0  0  0
    4.5704   -3.0548   36.2166 S   0  0  0  0  0  0  0  0  0  0  0  0
    3.4406   -3.7192   37.4287 C   0  0  0  0  0  0  0  0  0  0  0  0
    5.6961   -2.5202   36.9502 O   0  0  0  0  0  0  0  0  0  0  0  0
    4.7474   -3.9743   35.1175 O   0  0  0  0  0  0  0  0  0  0  0  0
    1.9513   -2.8068   34.3988 C   0  0  0  0  0  0  0  0  0  0  0  0
    1.5323   -5.4410   32.3493 C   0  0  0  0  0  0  0  0  0  0  0  0
    2.5154   -6.0570   33.3854 C   0  0  0  0  0  0  0  0  0  0  0  0
    2.0064   -6.3040   34.7869 N   0  0  0  0  0  0  0  0  0  0  0  0
    3.0922   -7.2327   35.7319 S   0  0  0  0  0  0  0  0  0  0  0  0
    4.2731   -6.4358   35.9337 O   0  0  0  0  0  0  0  0  0  0  0  0
    3.1557   -8.5386   35.1056 O   0  0  0  0  0  0  0  0  0  0  0  0
    2.5697   -7.5165   37.3792 C   0  0  0  0  0  0  0  0  0  0  0  0
    3.1816   -8.4938   38.1961 C   0  0  0  0  0  0  0  0  0  0  0  0
    2.5525   -8.4054   39.4101 C   0  0  0  0  0  0  0  0  0  0  0  0
    1.6558   -7.3945   39.2868 N   0  0  0  0  0  0  0  0  0  0  0  0
    0.7341   -6.9694   40.3082 C   0  0  0  0  0  0  0  0  0  0  0  0
    1.6777   -6.7821   38.0744 N   0  0  0  0  0  0  0  0  0  0  0  0
    0.8778   -6.1649   31.4062 C   0  0  0  0  0  0  0  0  0  0  0  0
   -0.2303   -6.8641   31.9760 C   0  0  0  0  0  0  0  0  0  0  0  0
   -0.9586   -7.8756   31.5753 N   0  0  0  0  0  0  0  0  0  0  0  0
   -1.7102   -8.2529   32.6553 N   0  0  0  0  0  0  0  0  0  0  0  0
   -1.4422   -7.4491   33.6669 C   0  0  0  0  0  0  0  0  0  0  0  0
   -1.7393   -7.6871   34.9687 N   0  0  0  0  0  0  0  0  0  0  0  0
   -0.6999   -6.3746   33.2048 N   0  0  0  0  0  0  0  0  0  0  0  0
   -1.6451   -5.1750   35.4081 H   0  0  0  0  0  0  0  0  0  0  0  0
   -0.1312   -4.4169   35.7279 H   0  0  0  0  0  0  0  0  0  0  0  0
   -1.3429   -3.5408   34.7817 H   0  0  0  0  0  0  0  0  0  0  0  0
    1.1663   -2.5962   31.1022 H   0  0  0  0  0  0  0  0  0  0  0  0
    2.7993   -0.7490   31.2397 H   0  0  0  0  0  0  0  0  0  0  0  0
    4.0350   -0.3361   33.3432 H   0  0  0  0  0  0  0  0  0  0  0  0
    4.3140   -0.8720   35.7094 H   0  0  0  0  0  0  0  0  0  0  0  0
    3.9825   -4.4762   38.0008 H   0  0  0  0  0  0  0  0  0  0  0  0
    2.5796   -4.1764   36.9534 H   0  0  0  0  0  0  0  0  0  0  0  0
    3.1363   -2.9146   38.1012 H   0  0  0  0  0  0  0  0  0  0  0  0
    1.7083   -3.3577   35.2902 H   0  0  0  0  0  0  0  0  0  0  0  0
    2.7130   -7.0347   33.0096 H   0  0  0  0  0  0  0  0  0  0  0  0
    3.4358   -5.4685   33.4055 H   0  0  0  0  0  0  0  0  0  0  0  0
    1.8640   -5.4322   35.2857 H   0  0  0  0  0  0  0  0  0  0  0  0
    3.9681   -9.1830   37.9202 H   0  0  0  0  0  0  0  0  0  0  0  0
    2.6675   -8.9711   40.3244 H   0  0  0  0  0  0  0  0  0  0  0  0
    0.9692   -5.9358   40.5738 H   0  0  0  0  0  0  0  0  0  0  0  0
    0.8310   -7.6123   41.1865 H   0  0  0  0  0  0  0  0  0  0  0  0
   -0.2801   -7.0393   39.9074 H   0  0  0  0  0  0  0  0  0  0  0  0
    0.5268   -5.6424   30.5144 H   0  0  0  0  0  0  0  0  0  0  0  0
   -1.0417   -7.3824   35.6440 H   0  0  0  0  0  0  0  0  0  0  0  0
   -1.8528   -8.7086   35.1107 H   0  0  0  0  0  0  0  0  0  0  0  0
  1  2  1  0
  2  3  2  0
  3  4  1  0
  4  5  2  0
  5  6  1  0
  6  7  2  0
  7  8  1  0
  8  9  1  0
  9 10  1  0
 10 11  1  0
 10 12  2  0
 10 13  2  0
  8 14  2  0
  3 15  1  0
 15 16  1  0
 16 17  1  0
 17 18  1  0
 18 19  2  0
 18 20  2  0
 18 21  1  0
 21 22  1  0
 22 23  2  0
 23 24  1  0
 24 25  1  0
 24 26  1  0
 15 27  2  0
 27 28  1  0
 28 29  2  0
 29 30  1  0
 30 31  2  0
 31 32  1  0
 31 33  1  0
 33  2  1  0
 14  4  1  0
 26 21  2  0
 33 28  1  0
  1 34  1  0
  1 35  1  0
  1 36  1  0
  5 37  1  0
  6 38  1  0
  7 39  1  0
  9 40  1  0
 11 41  1  0
 11 42  1  0
 11 43  1  0
 14 44  1  0
 16 45  1  0
 16 46  1  0
 17 47  1  0
 22 48  1  0
 23 49  1  0
 25 50  1  0
 25 51  1  0
 25 52  1  0
 27 53  1  0
 32 54  1  0
 32 55  1  0
M  END
>  <Energy>  (798) 
97.134794513293699

>  <compound_id>  (798) 
3734

>  <target_id>  (798) 
1

>  <reference_id>  (798) 
129

>  <inspiration_ids>  (798) 
[129, 140]

>  <energy_score>  (798) 
1.3240699433305565

>  <distance_score>  (798) 
1.527256483302435

>  <path>  (798) 
/opt/xchem-fragalysis-2/maxwin/BulkDock/SCRATCH/505734/C3734-P129/C3734-P129.minimised.mol

>  <scratch_subdir>  (798) 
/opt/xchem-fragalysis-2/maxwin/BulkDock/SCRATCH/505734/C3734-P129

>  <fragmenstein_runtime>  (798) 
7.7990241050720215

>  <fragmenstein_outcome>  (798) 
too moved

>  <fragmenstein_mode>  (798) 
expansion

>  <fragmenstein_error>  (798) 


$$$$
C3734-P140
     RDKit          3D

 55 58  0  0  0  0  0  0  0  0999 V2000
   -0.8986   -4.3085   34.8254 C   0  0  0  0  0  0  0  0  0  0  0  0
   -0.2691   -4.8528   33.5916 C   0  0  0  0  0  0  0  0  0  0  0  0
    0.7349   -4.1933   32.9431 C   0  0  0  0  0  0  0  0  0  0  0  0
    1.3410   -2.8616   33.1528 C   0  0  0  0  0  0  0  0  0  0  0  0
    1.6843   -2.0853   32.0369 C   0  0  0  0  0  0  0  0  0  0  0  0
    2.6415   -1.0750   32.1517 C   0  0  0  0  0  0  0  0  0  0  0  0
    3.3050   -0.8761   33.3652 C   0  0  0  0  0  0  0  0  0  0  0  0
    2.9665   -1.6488   34.4729 C   0  0  0  0  0  0  0  0  0  0  0  0
    3.7022   -1.5228   35.6933 N   0  0  0  0  0  0  0  0  0  0  0  0
    4.3444   -2.9167   36.4031 S   0  0  0  0  0  0  0  0  0  0  0  0
    3.1547   -3.2666   37.6816 C   0  0  0  0  0  0  0  0  0  0  0  0
    5.5709   -2.5160   37.0496 O   0  0  0  0  0  0  0  0  0  0  0  0
    4.2996   -3.9832   35.4293 O   0  0  0  0  0  0  0  0  0  0  0  0
    1.9223   -2.5625   34.3802 C   0  0  0  0  0  0  0  0  0  0  0  0
    1.5955   -5.1329   32.2120 C   0  0  0  0  0  0  0  0  0  0  0  0
    2.6583   -5.6988   33.1886 C   0  0  0  0  0  0  0  0  0  0  0  0
    2.3495   -5.6735   34.6734 N   0  0  0  0  0  0  0  0  0  0  0  0
    3.0563   -6.9494   35.5880 S   0  0  0  0  0  0  0  0  0  0  0  0
    4.4423   -6.6214   35.7868 O   0  0  0  0  0  0  0  0  0  0  0  0
    2.6532   -8.1612   34.9077 O   0  0  0  0  0  0  0  0  0  0  0  0
    2.3693   -7.0556   37.2051 C   0  0  0  0  0  0  0  0  0  0  0  0
    1.0756   -6.6027   37.5466 C   0  0  0  0  0  0  0  0  0  0  0  0
    0.8919   -6.9893   38.8535 C   0  0  0  0  0  0  0  0  0  0  0  0
    2.0323   -7.6465   39.2185 N   0  0  0  0  0  0  0  0  0  0  0  0
    2.2565   -8.3459   40.4604 C   0  0  0  0  0  0  0  0  0  0  0  0
    2.9864   -7.6210   38.2645 N   0  0  0  0  0  0  0  0  0  0  0  0
    0.9585   -5.8996   31.2895 C   0  0  0  0  0  0  0  0  0  0  0  0
   -0.1482   -6.6113   31.8496 C   0  0  0  0  0  0  0  0  0  0  0  0
   -0.8688   -7.6226   31.4297 N   0  0  0  0  0  0  0  0  0  0  0  0
   -1.6612   -7.9952   32.4809 N   0  0  0  0  0  0  0  0  0  0  0  0
   -1.4189   -7.1952   33.5000 C   0  0  0  0  0  0  0  0  0  0  0  0
   -1.7805   -7.4312   34.7874 N   0  0  0  0  0  0  0  0  0  0  0  0
   -0.6355   -6.1363   33.0737 N   0  0  0  0  0  0  0  0  0  0  0  0
   -1.6500   -4.9658   35.2584 H   0  0  0  0  0  0  0  0  0  0  0  0
   -0.1601   -4.1787   35.6201 H   0  0  0  0  0  0  0  0  0  0  0  0
   -1.3605   -3.3355   34.6304 H   0  0  0  0  0  0  0  0  0  0  0  0
    1.2559   -2.3006   31.0595 H   0  0  0  0  0  0  0  0  0  0  0  0
    2.9115   -0.4817   31.2809 H   0  0  0  0  0  0  0  0  0  0  0  0
    4.0950   -0.1325   33.4226 H   0  0  0  0  0  0  0  0  0  0  0  0
    4.3763   -0.7558   35.7428 H   0  0  0  0  0  0  0  0  0  0  0  0
    3.5376   -4.1066   38.2663 H   0  0  0  0  0  0  0  0  0  0  0  0
    2.1933   -3.5362   37.2505 H   0  0  0  0  0  0  0  0  0  0  0  0
    3.0625   -2.3890   38.3245 H   0  0  0  0  0  0  0  0  0  0  0  0
    1.6404   -3.1345   35.2493 H   0  0  0  0  0  0  0  0  0  0  0  0
    2.7352   -6.7247   32.9240 H   0  0  0  0  0  0  0  0  0  0  0  0
    3.6102   -5.1873   33.0158 H   0  0  0  0  0  0  0  0  0  0  0  0
    2.9014   -4.8689   35.0147 H   0  0  0  0  0  0  0  0  0  0  0  0
    0.3600   -6.0995   36.9176 H   0  0  0  0  0  0  0  0  0  0  0  0
    0.0510   -6.8977   39.5274 H   0  0  0  0  0  0  0  0  0  0  0  0
    3.0524   -7.8306   41.0033 H   0  0  0  0  0  0  0  0  0  0  0  0
    2.5510   -9.3729   40.2306 H   0  0  0  0  0  0  0  0  0  0  0  0
    1.3372   -8.3459   41.0510 H   0  0  0  0  0  0  0  0  0  0  0  0
    0.6146   -5.4061   30.3783 H   0  0  0  0  0  0  0  0  0  0  0  0
   -1.0995   -7.1502   35.4846 H   0  0  0  0  0  0  0  0  0  0  0  0
   -1.9249   -8.4480   34.8963 H   0  0  0  0  0  0  0  0  0  0  0  0
  1  2  1  0
  2  3  2  0
  3  4  1  0
  4  5  2  0
  5  6  1  0
  6  7  2  0
  7  8  1  0
  8  9  1  0
  9 10  1  0
 10 11  1  0
 10 12  2  0
 10 13  2  0
  8 14  2  0
  3 15  1  0
 15 16  1  0
 16 17  1  0
 17 18  1  0
 18 19  2  0
 18 20  2  0
 18 21  1  0
 21 22  1  0
 22 23  2  0
 23 24  1  0
 24 25  1  0
 24 26  1  0
 15 27  2  0
 27 28  1  0
 28 29  2  0
 29 30  1  0
 30 31  2  0
 31 32  1  0
 31 33  1  0
 33  2  1  0
 14  4  1  0
 26 21  2  0
 33 28  1  0
  1 34  1  0
  1 35  1  0
  1 36  1  0
  5 37  1  0
  6 38  1  0
  7 39  1  0
  9 40  1  0
 11 41  1  0
 11 42  1  0
 11 43  1  0
 14 44  1  0
 16 45  1  0
 16 46  1  0
 17 47  1  0
 22 48  1  0
 23 49  1  0
 25 50  1  0
 25 51  1  0
 25 52  1  0
 27 53  1  0
 32 54  1  0
 32 55  1  0
M  END
>  <Energy>  (799) 
99.384778954142206

>  <compound_id>  (799) 
3734

>  <target_id>  (799) 
1

>  <reference_id>  (799) 
140

>  <inspiration_ids>  (799) 
[129, 140]

>  <energy_score>  (799) 
3.5740543841792203

>  <distance_score>  (799) 
1.466207906432444

>  <path>  (799) 
/opt/xchem-fragalysis-2/maxwin/BulkDock/SCRATCH/505734/C3734-P140/C3734-P140.minimised.mol

>  <scratch_subdir>  (799) 
/opt/xchem-fragalysis-2/maxwin/BulkDock/SCRATCH/505734/C3734-P140

>  <fragmenstein_runtime>  (799) 
8.25998067855835

>  <fragmenstein_outcome>  (799) 
too moved

>  <fragmenstein_mode>  (799) 
expansion

>  <fragmenstein_error>  (799) 


$$$$
C3736-P129
     RDKit          3D

 53 56  0  0  0  0  0  0  0  0999 V2000
    4.0518   -3.3906   38.2067 C   0  0  0  0  0  0  0  0  0  0  0  0
    5.3531   -4.3594   37.4641 S   0  0  0  0  0  0  0  0  0  0  0  0
    6.4590   -4.3844   38.3963 O   0  0  0  0  0  0  0  0  0  0  0  0
    4.7879   -5.5868   36.9472 O   0  0  0  0  0  0  0  0  0  0  0  0
    5.8722   -3.3967   36.1977 N   0  0  0  0  0  0  0  0  0  0  0  0
    5.0272   -2.9547   35.1451 C   0  0  0  0  0  0  0  0  0  0  0  0
    5.4079   -1.8063   34.4419 C   0  0  0  0  0  0  0  0  0  0  0  0
    4.6111   -1.3069   33.4105 C   0  0  0  0  0  0  0  0  0  0  0  0
    3.4266   -1.9562   33.0827 C   0  0  0  0  0  0  0  0  0  0  0  0
    3.0658   -3.1249   33.7608 C   0  0  0  0  0  0  0  0  0  0  0  0
    1.7849   -3.7536   33.4746 C   0  0  0  0  0  0  0  0  0  0  0  0
    1.7221   -4.8701   32.7283 C   0  0  0  0  0  0  0  0  0  0  0  0
    0.4620   -5.2543   32.3118 N   0  0  0  0  0  0  0  0  0  0  0  0
   -0.1099   -6.4711   32.0433 C   0  0  0  0  0  0  0  0  0  0  0  0
    0.2835   -7.5990   32.6618 N   0  0  0  0  0  0  0  0  0  0  0  0
   -1.2458   -6.2706   31.4319 N   0  0  0  0  0  0  0  0  0  0  0  0
   -1.5707   -4.9364   31.6063 N   0  0  0  0  0  0  0  0  0  0  0  0
   -0.6189   -4.3943   32.3111 C   0  0  0  0  0  0  0  0  0  0  0  0
   -0.6065   -3.3278   33.2439 C   0  0  0  0  0  0  0  0  0  0  0  0
    0.5032   -3.2565   34.0141 C   0  0  0  0  0  0  0  0  0  0  0  0
    0.3649   -3.2163   35.5240 C   0  0  0  0  0  0  0  0  0  0  0  0
   -0.5692   -4.2774   35.9560 N   0  0  0  0  0  0  0  0  0  0  0  0
   -0.1258   -5.8966   36.0781 S   0  0  0  0  0  0  0  0  0  0  0  0
   -1.3513   -6.6479   35.9442 O   0  0  0  0  0  0  0  0  0  0  0  0
    0.9987   -6.1757   35.2108 O   0  0  0  0  0  0  0  0  0  0  0  0
    0.4278   -6.0891   37.7254 C   0  0  0  0  0  0  0  0  0  0  0  0
    1.6293   -6.7326   38.0039 C   0  0  0  0  0  0  0  0  0  0  0  0
    1.9724   -6.9599   39.3321 C   0  0  0  0  0  0  0  0  0  0  0  0
    1.1086   -6.5328   40.3298 C   0  0  0  0  0  0  0  0  0  0  0  0
    1.4126   -6.7617   41.6677 N   0  0  0  0  0  0  0  0  0  0  0  0
   -0.0303   -5.8649   40.0740 N   0  0  0  0  0  0  0  0  0  0  0  0
   -0.3633   -5.6696   38.7736 C   0  0  0  0  0  0  0  0  0  0  0  0
    3.8866   -3.6458   34.7561 C   0  0  0  0  0  0  0  0  0  0  0  0
    4.4439   -2.4020   38.4524 H   0  0  0  0  0  0  0  0  0  0  0  0
    3.7411   -3.9001   39.1219 H   0  0  0  0  0  0  0  0  0  0  0  0
    3.2052   -3.3215   37.5254 H   0  0  0  0  0  0  0  0  0  0  0  0
    6.6832   -2.8277   36.4403 H   0  0  0  0  0  0  0  0  0  0  0  0
    6.3234   -1.2781   34.6970 H   0  0  0  0  0  0  0  0  0  0  0  0
    4.9065   -0.4063   32.8779 H   0  0  0  0  0  0  0  0  0  0  0  0
    2.7885   -1.5486   32.3007 H   0  0  0  0  0  0  0  0  0  0  0  0
    2.5632   -5.4684   32.4120 H   0  0  0  0  0  0  0  0  0  0  0  0
    0.6857   -7.4368   33.5905 H   0  0  0  0  0  0  0  0  0  0  0  0
   -0.4970   -8.2512   32.7698 H   0  0  0  0  0  0  0  0  0  0  0  0
   -1.5792   -3.0048   33.6029 H   0  0  0  0  0  0  0  0  0  0  0  0
   -0.0385   -2.2451   35.8311 H   0  0  0  0  0  0  0  0  0  0  0  0
    1.3153   -3.3452   36.0476 H   0  0  0  0  0  0  0  0  0  0  0  0
   -1.5416   -4.1904   35.6369 H   0  0  0  0  0  0  0  0  0  0  0  0
    2.2842   -7.0859   37.2115 H   0  0  0  0  0  0  0  0  0  0  0  0
    2.8959   -7.4727   39.5800 H   0  0  0  0  0  0  0  0  0  0  0  0
    0.6233   -6.4157   42.2093 H   0  0  0  0  0  0  0  0  0  0  0  0
    1.5766   -7.7468   41.8420 H   0  0  0  0  0  0  0  0  0  0  0  0
   -1.3166   -5.1731   38.6173 H   0  0  0  0  0  0  0  0  0  0  0  0
    3.5883   -4.5751   35.2300 H   0  0  0  0  0  0  0  0  0  0  0  0
  1  2  1  0
  2  3  2  0
  2  4  2  0
  2  5  1  0
  5  6  1  0
  6  7  2  0
  7  8  1  0
  8  9  2  0
  9 10  1  0
 10 11  1  0
 11 12  2  0
 12 13  1  0
 13 14  1  0
 14 15  1  0
 14 16  2  0
 16 17  1  0
 17 18  2  0
 18 19  1  0
 19 20  2  0
 20 21  1  0
 21 22  1  0
 22 23  1  0
 23 24  2  0
 23 25  2  0
 23 26  1  0
 26 27  2  0
 27 28  1  0
 28 29  2  0
 29 30  1  0
 29 31  1  0
 31 32  2  0
 10 33  2  0
 33  6  1  0
 20 11  1  0
 32 26  1  0
 18 13  1  0
  1 34  1  0
  1 35  1  0
  1 36  1  0
  5 37  1  0
  7 38  1  0
  8 39  1  0
  9 40  1  0
 12 41  1  0
 15 42  1  0
 15 43  1  0
 19 44  1  0
 21 45  1  0
 21 46  1  0
 22 47  1  0
 27 48  1  0
 28 49  1  0
 30 50  1  0
 30 51  1  0
 32 52  1  0
 33 53  1  0
M  END
>  <Energy>  (800) 
-86.272713287161821

>  <compound_id>  (800) 
3736

>  <target_id>  (800) 
1

>  <reference_id>  (800) 
129

>  <inspiration_ids>  (800) 
[129, 144]

>  <energy_score>  (800) 
-50.93041936196544

>  <distance_score>  (800) 
2.168272590468691

>  <path>  (800) 
/opt/xchem-fragalysis-2/maxwin/BulkDock/SCRATCH/505734/C3736-P129/C3736-P129.minimised.mol

>  <scratch_subdir>  (800) 
/opt/xchem-fragalysis-2/maxwin/BulkDock/SCRATCH/505734/C3736-P129

>  <fragmenstein_runtime>  (800) 
8.125263690948486

>  <fragmenstein_outcome>  (800) 
too moved

>  <fragmenstein_mode>  (800) 
expansion

>  <fragmenstein_error>  (800) 


$$$$
C3736-P144
     RDKit          3D

 53 56  0  0  0  0  0  0  0  0999 V2000
    3.8661   -3.2928   38.2693 C   0  0  0  0  0  0  0  0  0  0  0  0
    5.2168   -3.9933   37.3444 S   0  0  0  0  0  0  0  0  0  0  0  0
    6.4185   -3.7865   38.1235 O   0  0  0  0  0  0  0  0  0  0  0  0
    4.8514   -5.3103   36.8720 O   0  0  0  0  0  0  0  0  0  0  0  0
    5.3325   -2.9201   36.0632 N   0  0  0  0  0  0  0  0  0  0  0  0
    4.6327   -3.0883   34.8343 C   0  0  0  0  0  0  0  0  0  0  0  0
    5.0814   -2.3474   33.7352 C   0  0  0  0  0  0  0  0  0  0  0  0
    4.3771   -2.3631   32.5316 C   0  0  0  0  0  0  0  0  0  0  0  0
    3.2008   -3.0992   32.4335 C   0  0  0  0  0  0  0  0  0  0  0  0
    2.7285   -3.8215   33.5374 C   0  0  0  0  0  0  0  0  0  0  0  0
    1.4375   -4.5015   33.4337 C   0  0  0  0  0  0  0  0  0  0  0  0
    1.2886   -5.8345   33.5150 C   0  0  0  0  0  0  0  0  0  0  0  0
    0.0931   -6.3531   33.0274 N   0  0  0  0  0  0  0  0  0  0  0  0
   -0.5911   -7.5231   33.2251 C   0  0  0  0  0  0  0  0  0  0  0  0
   -0.5145   -8.1615   34.4110 N   0  0  0  0  0  0  0  0  0  0  0  0
   -1.3880   -7.7119   32.1971 N   0  0  0  0  0  0  0  0  0  0  0  0
   -1.4955   -6.4892   31.5518 N   0  0  0  0  0  0  0  0  0  0  0  0
   -0.7662   -5.6278   32.2283 C   0  0  0  0  0  0  0  0  0  0  0  0
   -0.7966   -4.2268   32.4920 C   0  0  0  0  0  0  0  0  0  0  0  0
    0.1716   -3.7632   33.3167 C   0  0  0  0  0  0  0  0  0  0  0  0
   -0.1353   -2.8016   34.4441 C   0  0  0  0  0  0  0  0  0  0  0  0
    0.3724   -3.3373   35.7646 N   0  0  0  0  0  0  0  0  0  0  0  0
   -0.5858   -4.5055   36.5492 S   0  0  0  0  0  0  0  0  0  0  0  0
   -1.5933   -3.7561   37.2588 O   0  0  0  0  0  0  0  0  0  0  0  0
   -0.9091   -5.5922   35.6574 O   0  0  0  0  0  0  0  0  0  0  0  0
    0.4998   -5.1982   37.7483 C   0  0  0  0  0  0  0  0  0  0  0  0
    1.3079   -6.2877   37.4383 C   0  0  0  0  0  0  0  0  0  0  0  0
    2.0101   -6.9177   38.4624 C   0  0  0  0  0  0  0  0  0  0  0  0
    1.8952   -6.4304   39.7560 C   0  0  0  0  0  0  0  0  0  0  0  0
    2.5435   -7.0650   40.8086 N   0  0  0  0  0  0  0  0  0  0  0  0
    1.1325   -5.3661   40.0661 N   0  0  0  0  0  0  0  0  0  0  0  0
    0.4188   -4.7910   39.0647 C   0  0  0  0  0  0  0  0  0  0  0  0
    3.4437   -3.8067   34.7316 C   0  0  0  0  0  0  0  0  0  0  0  0
    3.7379   -3.8883   39.1752 H   0  0  0  0  0  0  0  0  0  0  0  0
    2.9559   -3.3207   37.6722 H   0  0  0  0  0  0  0  0  0  0  0  0
    4.1202   -2.2659   38.5396 H   0  0  0  0  0  0  0  0  0  0  0  0
    6.2569   -2.4886   36.0229 H   0  0  0  0  0  0  0  0  0  0  0  0
    5.9842   -1.7455   33.8042 H   0  0  0  0  0  0  0  0  0  0  0  0
    4.7366   -1.7912   31.6798 H   0  0  0  0  0  0  0  0  0  0  0  0
    2.6450   -3.0932   31.4974 H   0  0  0  0  0  0  0  0  0  0  0  0
    2.0450   -6.5266   33.8441 H   0  0  0  0  0  0  0  0  0  0  0  0
   -0.6627   -7.5347   35.2088 H   0  0  0  0  0  0  0  0  0  0  0  0
   -1.1844   -8.9380   34.5303 H   0  0  0  0  0  0  0  0  0  0  0  0
   -1.7468   -3.7163   32.4096 H   0  0  0  0  0  0  0  0  0  0  0  0
   -1.2045   -2.5782   34.5324 H   0  0  0  0  0  0  0  0  0  0  0  0
    0.3735   -1.8486   34.2563 H   0  0  0  0  0  0  0  0  0  0  0  0
    0.4366   -2.5414   36.4035 H   0  0  0  0  0  0  0  0  0  0  0  0
    1.3630   -6.6842   36.4300 H   0  0  0  0  0  0  0  0  0  0  0  0
    2.6142   -7.7948   38.2542 H   0  0  0  0  0  0  0  0  0  0  0  0
    3.5353   -7.1775   40.6366 H   0  0  0  0  0  0  0  0  0  0  0  0
    2.3543   -6.5314   41.6530 H   0  0  0  0  0  0  0  0  0  0  0  0
   -0.2450   -3.9923   39.3860 H   0  0  0  0  0  0  0  0  0  0  0  0
    3.0332   -4.3486   35.5748 H   0  0  0  0  0  0  0  0  0  0  0  0
  1  2  1  0
  2  3  2  0
  2  4  2  0
  2  5  1  0
  5  6  1  0
  6  7  2  0
  7  8  1  0
  8  9  2  0
  9 10  1  0
 10 11  1  0
 11 12  2  0
 12 13  1  0
 13 14  1  0
 14 15  1  0
 14 16  2  0
 16 17  1  0
 17 18  2  0
 18 19  1  0
 19 20  2  0
 20 21  1  0
 21 22  1  0
 22 23  1  0
 23 24  2  0
 23 25  2  0
 23 26  1  0
 26 27  2  0
 27 28  1  0
 28 29  2  0
 29 30  1  0
 29 31  1  0
 31 32  2  0
 10 33  2  0
 33  6  1  0
 20 11  1  0
 32 26  1  0
 18 13  1  0
  1 34  1  0
  1 35  1  0
  1 36  1  0
  5 37  1  0
  7 38  1  0
  8 39  1  0
  9 40  1  0
 12 41  1  0
 15 42  1  0
 15 43  1  0
 19 44  1  0
 21 45  1  0
 21 46  1  0
 22 47  1  0
 27 48  1  0
 28 49  1  0
 30 50  1  0
 30 51  1  0
 32 52  1  0
 33 53  1  0
M  END
>  <Energy>  (801) 
-85.353688818954481

>  <compound_id>  (801) 
3736

>  <target_id>  (801) 
1

>  <reference_id>  (801) 
144

>  <inspiration_ids>  (801) 
[129, 144]

>  <energy_score>  (801) 
-50.01139489375852

>  <distance_score>  (801) 
2.0979577835872094

>  <path>  (801) 
/opt/xchem-fragalysis-2/maxwin/BulkDock/SCRATCH/505734/C3736-P144/C3736-P144.minimised.mol

>  <scratch_subdir>  (801) 
/opt/xchem-fragalysis-2/maxwin/BulkDock/SCRATCH/505734/C3736-P144

>  <fragmenstein_runtime>  (801) 
7.731679201126099

>  <fragmenstein_outcome>  (801) 
too moved

>  <fragmenstein_mode>  (801) 
expansion

>  <fragmenstein_error>  (801) 


$$$$
C3736-P129
     RDKit          3D

 53 56  0  0  0  0  0  0  0  0999 V2000
    3.7898   -3.4327   38.2225 C   0  0  0  0  0  0  0  0  0  0  0  0
    5.1719   -4.0505   37.2849 S   0  0  0  0  0  0  0  0  0  0  0  0
    6.3598   -3.8463   38.0854 O   0  0  0  0  0  0  0  0  0  0  0  0
    4.8509   -5.3537   36.7450 O   0  0  0  0  0  0  0  0  0  0  0  0
    5.2724   -2.9127   36.0565 N   0  0  0  0  0  0  0  0  0  0  0  0
    4.6257   -3.0642   34.7966 C   0  0  0  0  0  0  0  0  0  0  0  0
    5.0945   -2.2830   33.7347 C   0  0  0  0  0  0  0  0  0  0  0  0
    4.4386   -2.2887   32.5033 C   0  0  0  0  0  0  0  0  0  0  0  0
    3.2903   -3.0569   32.3385 C   0  0  0  0  0  0  0  0  0  0  0  0
    2.7973   -3.8187   33.4050 C   0  0  0  0  0  0  0  0  0  0  0  0
    1.5334   -4.5363   33.2408 C   0  0  0  0  0  0  0  0  0  0  0  0
    1.4496   -5.8783   33.2543 C   0  0  0  0  0  0  0  0  0  0  0  0
    0.2624   -6.4247   32.7851 N   0  0  0  0  0  0  0  0  0  0  0  0
   -0.4280   -7.5735   33.0653 C   0  0  0  0  0  0  0  0  0  0  0  0
   -0.4186   -8.0683   34.3226 N   0  0  0  0  0  0  0  0  0  0  0  0
   -1.2541   -7.8093   32.0712 N   0  0  0  0  0  0  0  0  0  0  0  0
   -1.3968   -6.6062   31.4004 N   0  0  0  0  0  0  0  0  0  0  0  0
   -0.6462   -5.7211   32.0235 C   0  0  0  0  0  0  0  0  0  0  0  0
   -0.7126   -4.3233   32.2985 C   0  0  0  0  0  0  0  0  0  0  0  0
    0.2404   -3.8380   33.1301 C   0  0  0  0  0  0  0  0  0  0  0  0
   -0.0987   -2.8668   34.2409 C   0  0  0  0  0  0  0  0  0  0  0  0
    0.3500   -3.4016   35.5796 N   0  0  0  0  0  0  0  0  0  0  0  0
   -0.6382   -4.5688   36.3253 S   0  0  0  0  0  0  0  0  0  0  0  0
   -1.6350   -3.8308   37.0613 O   0  0  0  0  0  0  0  0  0  0  0  0
   -0.9894   -5.6091   35.3899 O   0  0  0  0  0  0  0  0  0  0  0  0
    0.4376   -5.3296   37.4928 C   0  0  0  0  0  0  0  0  0  0  0  0
    1.2659   -6.3849   37.1249 C   0  0  0  0  0  0  0  0  0  0  0  0
    1.9677   -7.0700   38.1138 C   0  0  0  0  0  0  0  0  0  0  0  0
    1.8394   -6.6686   39.4377 C   0  0  0  0  0  0  0  0  0  0  0  0
    2.4898   -7.3829   40.4477 N   0  0  0  0  0  0  0  0  0  0  0  0
    1.0556   -5.6358   39.7977 N   0  0  0  0  0  0  0  0  0  0  0  0
    0.3434   -5.0051   38.8301 C   0  0  0  0  0  0  0  0  0  0  0  0
    3.4618   -3.8100   34.6293 C   0  0  0  0  0  0  0  0  0  0  0  0
    3.6637   -4.0767   39.0949 H   0  0  0  0  0  0  0  0  0  0  0  0
    2.8908   -3.4541   37.6083 H   0  0  0  0  0  0  0  0  0  0  0  0
    4.0124   -2.4146   38.5478 H   0  0  0  0  0  0  0  0  0  0  0  0
    6.1789   -2.4429   36.0653 H   0  0  0  0  0  0  0  0  0  0  0  0
    5.9757   -1.6576   33.8542 H   0  0  0  0  0  0  0  0  0  0  0  0
    4.8145   -1.6846   31.6812 H   0  0  0  0  0  0  0  0  0  0  0  0
    2.7720   -3.0438   31.3813 H   0  0  0  0  0  0  0  0  0  0  0  0
    2.2406   -6.5583   33.5306 H   0  0  0  0  0  0  0  0  0  0  0  0
   -1.0738   -8.8514   34.4789 H   0  0  0  0  0  0  0  0  0  0  0  0
   -0.6890   -7.3562   35.0109 H   0  0  0  0  0  0  0  0  0  0  0  0
   -1.6730   -3.8341   32.2076 H   0  0  0  0  0  0  0  0  0  0  0  0
   -1.1685   -2.6335   34.2873 H   0  0  0  0  0  0  0  0  0  0  0  0
    0.4242   -1.9187   34.0683 H   0  0  0  0  0  0  0  0  0  0  0  0
    0.3907   -2.6068   36.2227 H   0  0  0  0  0  0  0  0  0  0  0  0
    1.3434   -6.7106   36.0935 H   0  0  0  0  0  0  0  0  0  0  0  0
    2.5918   -7.9165   37.8465 H   0  0  0  0  0  0  0  0  0  0  0  0
    3.4813   -7.4543   40.2423 H   0  0  0  0  0  0  0  0  0  0  0  0
    2.1074   -8.3248   40.4777 H   0  0  0  0  0  0  0  0  0  0  0  0
   -0.3276   -4.2325   39.1969 H   0  0  0  0  0  0  0  0  0  0  0  0
    3.0327   -4.3793   35.4449 H   0  0  0  0  0  0  0  0  0  0  0  0
  1  2  1  0
  2  3  2  0
  2  4  2  0
  2  5  1  0
  5  6  1  0
  6  7  2  0
  7  8  1  0
  8  9  2  0
  9 10  1  0
 10 11  1  0
 11 12  2  0
 12 13  1  0
 13 14  1  0
 14 15  1  0
 14 16  2  0
 16 17  1  0
 17 18  2  0
 18 19  1  0
 19 20  2  0
 20 21  1  0
 21 22  1  0
 22 23  1  0
 23 24  2  0
 23 25  2  0
 23 26  1  0
 26 27  2  0
 27 28  1  0
 28 29  2  0
 29 30  1  0
 29 31  1  0
 31 32  2  0
 10 33  2  0
 33  6  1  0
 20 11  1  0
 32 26  1  0
 18 13  1  0
  1 34  1  0
  1 35  1  0
  1 36  1  0
  5 37  1  0
  7 38  1  0
  8 39  1  0
  9 40  1  0
 12 41  1  0
 15 42  1  0
 15 43  1  0
 19 44  1  0
 21 45  1  0
 21 46  1  0
 22 47  1  0
 27 48  1  0
 28 49  1  0
 30 50  1  0
 30 51  1  0
 32 52  1  0
 33 53  1  0
M  END
>  <Energy>  (802) 
-73.598810250520984

>  <compound_id>  (802) 
3736

>  <target_id>  (802) 
1

>  <reference_id>  (802) 
129

>  <inspiration_ids>  (802) 
[129, 145]

>  <energy_score>  (802) 
-38.256516325325514

>  <distance_score>  (802) 
2.0786454379177672

>  <path>  (802) 
/opt/xchem-fragalysis-2/maxwin/BulkDock/SCRATCH/505734/C3736-P129/C3736-P129.minimised.mol

>  <scratch_subdir>  (802) 
/opt/xchem-fragalysis-2/maxwin/BulkDock/SCRATCH/505734/C3736-P129

>  <fragmenstein_runtime>  (802) 
7.445948362350464

>  <fragmenstein_outcome>  (802) 
too moved

>  <fragmenstein_mode>  (802) 
expansion

>  <fragmenstein_error>  (802) 


$$$$
C3736-P145
     RDKit          3D

 53 56  0  0  0  0  0  0  0  0999 V2000
    4.3404   -3.4460   38.4623 C   0  0  0  0  0  0  0  0  0  0  0  0
    5.6236   -4.0609   37.3903 S   0  0  0  0  0  0  0  0  0  0  0  0
    6.8404   -4.1054   38.1710 O   0  0  0  0  0  0  0  0  0  0  0  0
    5.1428   -5.2331   36.6931 O   0  0  0  0  0  0  0  0  0  0  0  0
    5.8241   -2.7851   36.3323 N   0  0  0  0  0  0  0  0  0  0  0  0
    5.0226   -2.5532   35.1819 C   0  0  0  0  0  0  0  0  0  0  0  0
    5.4253   -1.5340   34.3114 C   0  0  0  0  0  0  0  0  0  0  0  0
    4.6325   -1.1720   33.2210 C   0  0  0  0  0  0  0  0  0  0  0  0
    3.4177   -1.8147   33.0117 C   0  0  0  0  0  0  0  0  0  0  0  0
    3.0041   -2.8225   33.8892 C   0  0  0  0  0  0  0  0  0  0  0  0
    1.7212   -3.4746   33.6695 C   0  0  0  0  0  0  0  0  0  0  0  0
    1.6727   -4.6843   33.0957 C   0  0  0  0  0  0  0  0  0  0  0  0
    0.4567   -5.0837   32.5782 N   0  0  0  0  0  0  0  0  0  0  0  0
   -0.1277   -6.2921   32.2982 C   0  0  0  0  0  0  0  0  0  0  0  0
    0.0612   -7.3728   33.0902 N   0  0  0  0  0  0  0  0  0  0  0  0
   -1.0622   -6.0814   31.4014 N   0  0  0  0  0  0  0  0  0  0  0  0
   -1.3464   -4.7169   31.4314 N   0  0  0  0  0  0  0  0  0  0  0  0
   -0.5643   -4.1868   32.3409 C   0  0  0  0  0  0  0  0  0  0  0  0
   -0.6398   -3.0899   33.2444 C   0  0  0  0  0  0  0  0  0  0  0  0
    0.4210   -2.9294   34.0709 C   0  0  0  0  0  0  0  0  0  0  0  0
    0.2530   -2.5666   35.5250 C   0  0  0  0  0  0  0  0  0  0  0  0
    0.8894   -3.5758   36.4462 N   0  0  0  0  0  0  0  0  0  0  0  0
    0.2678   -5.1556   36.5064 S   0  0  0  0  0  0  0  0  0  0  0  0
   -1.1535   -5.0420   36.6921 O   0  0  0  0  0  0  0  0  0  0  0  0
    0.8135   -5.9728   35.4447 O   0  0  0  0  0  0  0  0  0  0  0  0
    0.9452   -5.7928   37.9964 C   0  0  0  0  0  0  0  0  0  0  0  0
    2.1549   -6.4811   37.9861 C   0  0  0  0  0  0  0  0  0  0  0  0
    2.5811   -7.1024   39.1562 C   0  0  0  0  0  0  0  0  0  0  0  0
    1.7934   -7.0069   40.2943 C   0  0  0  0  0  0  0  0  0  0  0  0
    2.1581   -7.6662   41.4585 N   0  0  0  0  0  0  0  0  0  0  0  0
    0.6305   -6.3304   40.3172 N   0  0  0  0  0  0  0  0  0  0  0  0
    0.2085   -5.7580   39.1628 C   0  0  0  0  0  0  0  0  0  0  0  0
    3.8061   -3.1885   34.9648 C   0  0  0  0  0  0  0  0  0  0  0  0
    3.4179   -3.3147   37.8991 H   0  0  0  0  0  0  0  0  0  0  0  0
    4.6686   -2.5004   38.8982 H   0  0  0  0  0  0  0  0  0  0  0  0
    4.1871   -4.1809   39.2556 H   0  0  0  0  0  0  0  0  0  0  0  0
    6.7714   -2.4061   36.3466 H   0  0  0  0  0  0  0  0  0  0  0  0
    6.3601   -1.0035   34.4757 H   0  0  0  0  0  0  0  0  0  0  0  0
    4.9572   -0.3839   32.5462 H   0  0  0  0  0  0  0  0  0  0  0  0
    2.7961   -1.5264   32.1659 H   0  0  0  0  0  0  0  0  0  0  0  0
    2.5245   -5.3190   32.9736 H   0  0  0  0  0  0  0  0  0  0  0  0
   -0.7408   -8.0041   33.0924 H   0  0  0  0  0  0  0  0  0  0  0  0
    0.2990   -7.1297   34.0616 H   0  0  0  0  0  0  0  0  0  0  0  0
   -1.6282   -2.7182   33.4910 H   0  0  0  0  0  0  0  0  0  0  0  0
   -0.7991   -2.4475   35.8082 H   0  0  0  0  0  0  0  0  0  0  0  0
    0.7378   -1.6010   35.7128 H   0  0  0  0  0  0  0  0  0  0  0  0
    0.9778   -3.1879   37.3857 H   0  0  0  0  0  0  0  0  0  0  0  0
    2.7465   -6.5775   37.0787 H   0  0  0  0  0  0  0  0  0  0  0  0
    3.4976   -7.6840   39.1673 H   0  0  0  0  0  0  0  0  0  0  0  0
    3.1018   -7.4602   41.7582 H   0  0  0  0  0  0  0  0  0  0  0  0
    1.4641   -7.4576   42.1711 H   0  0  0  0  0  0  0  0  0  0  0  0
   -0.7693   -5.2857   39.2244 H   0  0  0  0  0  0  0  0  0  0  0  0
    3.4456   -3.9761   35.6147 H   0  0  0  0  0  0  0  0  0  0  0  0
  1  2  1  0
  2  3  2  0
  2  4  2  0
  2  5  1  0
  5  6  1  0
  6  7  2  0
  7  8  1  0
  8  9  2  0
  9 10  1  0
 10 11  1  0
 11 12  2  0
 12 13  1  0
 13 14  1  0
 14 15  1  0
 14 16  2  0
 16 17  1  0
 17 18  2  0
 18 19  1  0
 19 20  2  0
 20 21  1  0
 21 22  1  0
 22 23  1  0
 23 24  2  0
 23 25  2  0
 23 26  1  0
 26 27  2  0
 27 28  1  0
 28 29  2  0
 29 30  1  0
 29 31  1  0
 31 32  2  0
 10 33  2  0
 33  6  1  0
 20 11  1  0
 32 26  1  0
 18 13  1  0
  1 34  1  0
  1 35  1  0
  1 36  1  0
  5 37  1  0
  7 38  1  0
  8 39  1  0
  9 40  1  0
 12 41  1  0
 15 42  1  0
 15 43  1  0
 19 44  1  0
 21 45  1  0
 21 46  1  0
 22 47  1  0
 27 48  1  0
 28 49  1  0
 30 50  1  0
 30 51  1  0
 32 52  1  0
 33 53  1  0
M  END
>  <Energy>  (803) 
-82.895488039438121

>  <compound_id>  (803) 
3736

>  <target_id>  (803) 
1

>  <reference_id>  (803) 
145

>  <inspiration_ids>  (803) 
[129, 145]

>  <energy_score>  (803) 
-47.553194114244675

>  <distance_score>  (803) 
2.4343051462519503

>  <path>  (803) 
/opt/xchem-fragalysis-2/maxwin/BulkDock/SCRATCH/505734/C3736-P145/C3736-P145.minimised.mol

>  <scratch_subdir>  (803) 
/opt/xchem-fragalysis-2/maxwin/BulkDock/SCRATCH/505734/C3736-P145

>  <fragmenstein_runtime>  (803) 
7.822165250778198

>  <fragmenstein_outcome>  (803) 
too moved

>  <fragmenstein_mode>  (803) 
expansion

>  <fragmenstein_error>  (803) 


$$$$
C3737-P129
     RDKit          3D

 47 49  0  0  0  0  0  0  0  0999 V2000
    4.8611   -9.3857   37.7919 C   0  0  0  0  0  0  0  0  0  0  0  0
    4.2349   -7.9946   37.8410 C   0  0  0  0  0  0  0  0  0  0  0  0
    3.1256   -7.8498   36.9313 O   0  0  0  0  0  0  0  0  0  0  0  0
    3.4795   -7.5712   35.6540 C   0  0  0  0  0  0  0  0  0  0  0  0
    4.6150   -7.5722   35.2062 O   0  0  0  0  0  0  0  0  0  0  0  0
    2.2691   -7.3511   34.8217 C   0  0  0  0  0  0  0  0  0  0  0  0
    2.4169   -6.6412   33.6866 C   0  0  0  0  0  0  0  0  0  0  0  0
    1.4933   -6.5273   32.5072 C   0  0  0  0  0  0  0  0  0  0  0  0
    1.4312   -5.3217   31.8950 C   0  0  0  0  0  0  0  0  0  0  0  0
    0.6565   -4.3655   32.7488 C   0  0  0  0  0  0  0  0  0  0  0  0
    1.3242   -3.0920   33.0150 C   0  0  0  0  0  0  0  0  0  0  0  0
    1.4531   -2.0968   32.0484 C   0  0  0  0  0  0  0  0  0  0  0  0
    2.3847   -1.0758   32.2404 C   0  0  0  0  0  0  0  0  0  0  0  0
    3.2106   -1.0760   33.3726 C   0  0  0  0  0  0  0  0  0  0  0  0
    3.1177   -2.0991   34.3180 C   0  0  0  0  0  0  0  0  0  0  0  0
    3.9439   -2.0436   35.4787 N   0  0  0  0  0  0  0  0  0  0  0  0
    4.3113   -3.3887   36.4110 S   0  0  0  0  0  0  0  0  0  0  0  0
    2.9201   -3.4743   37.5218 C   0  0  0  0  0  0  0  0  0  0  0  0
    5.4593   -3.0124   37.2069 O   0  0  0  0  0  0  0  0  0  0  0  0
    4.3314   -4.5752   35.5876 O   0  0  0  0  0  0  0  0  0  0  0  0
    2.1395   -3.0691   34.1510 C   0  0  0  0  0  0  0  0  0  0  0  0
   -0.3950   -4.8910   33.4502 C   0  0  0  0  0  0  0  0  0  0  0  0
   -0.6771   -6.2646   33.2657 N   0  0  0  0  0  0  0  0  0  0  0  0
   -1.5176   -7.2339   33.7684 C   0  0  0  0  0  0  0  0  0  0  0  0
   -1.9874   -7.2755   35.0350 N   0  0  0  0  0  0  0  0  0  0  0  0
   -1.5837   -8.2063   32.8778 N   0  0  0  0  0  0  0  0  0  0  0  0
   -0.4794   -8.0989   32.0691 N   0  0  0  0  0  0  0  0  0  0  0  0
    0.1764   -7.0643   32.5274 C   0  0  0  0  0  0  0  0  0  0  0  0
    5.7302   -9.4374   38.4540 H   0  0  0  0  0  0  0  0  0  0  0  0
    5.1722   -9.6515   36.7777 H   0  0  0  0  0  0  0  0  0  0  0  0
    4.1376  -10.1384   38.1180 H   0  0  0  0  0  0  0  0  0  0  0  0
    3.8442   -7.8090   38.8472 H   0  0  0  0  0  0  0  0  0  0  0  0
    4.9874   -7.2201   37.6481 H   0  0  0  0  0  0  0  0  0  0  0  0
    1.3746   -7.8926   35.0977 H   0  0  0  0  0  0  0  0  0  0  0  0
    3.3555   -6.0967   33.5420 H   0  0  0  0  0  0  0  0  0  0  0  0
    0.9847   -5.2510   30.8943 H   0  0  0  0  0  0  0  0  0  0  0  0
    0.8670   -2.1284   31.1327 H   0  0  0  0  0  0  0  0  0  0  0  0
    2.4861   -0.2890   31.4960 H   0  0  0  0  0  0  0  0  0  0  0  0
    3.9336   -0.2735   33.4934 H   0  0  0  0  0  0  0  0  0  0  0  0
    4.6921   -1.3498   35.4967 H   0  0  0  0  0  0  0  0  0  0  0  0
    2.0030   -3.6993   36.9814 H   0  0  0  0  0  0  0  0  0  0  0  0
    2.8359   -2.5234   38.0518 H   0  0  0  0  0  0  0  0  0  0  0  0
    3.1211   -4.2742   38.2389 H   0  0  0  0  0  0  0  0  0  0  0  0
    2.0425   -3.8883   34.8520 H   0  0  0  0  0  0  0  0  0  0  0  0
   -0.9928   -4.3511   34.1732 H   0  0  0  0  0  0  0  0  0  0  0  0
   -2.0456   -8.2589   35.3395 H   0  0  0  0  0  0  0  0  0  0  0  0
   -1.4874   -6.7332   35.7340 H   0  0  0  0  0  0  0  0  0  0  0  0
  1  2  1  0
  2  3  1  0
  3  4  1  0
  4  5  2  0
  4  6  1  0
  6  7  2  3
  7  8  1  0
  8  9  2  0
  9 10  1  0
 10 11  1  0
 11 12  2  0
 12 13  1  0
 13 14  2  0
 14 15  1  0
 15 16  1  0
 16 17  1  0
 17 18  1  0
 17 19  2  0
 17 20  2  0
 15 21  2  0
 10 22  2  0
 22 23  1  0
 23 24  1  0
 24 25  1  0
 24 26  2  0
 26 27  1  0
 27 28  2  0
 28  8  1  0
 21 11  1  0
 28 23  1  0
  1 29  1  0
  1 30  1  0
  1 31  1  0
  2 32  1  0
  2 33  1  0
  6 34  1  0
  7 35  1  0
  9 36  1  0
 12 37  1  0
 13 38  1  0
 14 39  1  0
 16 40  1  0
 18 41  1  0
 18 42  1  0
 18 43  1  0
 21 44  1  0
 22 45  1  0
 25 46  1  0
 25 47  1  0
M  END
>  <Energy>  (804) 
77.765744877174797

>  <compound_id>  (804) 
3737

>  <target_id>  (804) 
1

>  <reference_id>  (804) 
129

>  <inspiration_ids>  (804) 
[129, 148]

>  <energy_score>  (804) 
16.469355768095

>  <distance_score>  (804) 
1.4333881000064352

>  <path>  (804) 
/opt/xchem-fragalysis-2/maxwin/BulkDock/SCRATCH/505734/C3737-P129/C3737-P129.minimised.mol

>  <scratch_subdir>  (804) 
/opt/xchem-fragalysis-2/maxwin/BulkDock/SCRATCH/505734/C3737-P129

>  <fragmenstein_runtime>  (804) 
1.7834625244140625

>  <fragmenstein_outcome>  (804) 
too moved

>  <fragmenstein_mode>  (804) 
expansion

>  <fragmenstein_error>  (804) 


$$$$
C3737-P148
     RDKit          3D

 47 49  0  0  0  0  0  0  0  0999 V2000
    4.7626   -9.3999   37.8143 C   0  0  0  0  0  0  0  0  0  0  0  0
    4.0620   -8.0481   37.9212 C   0  0  0  0  0  0  0  0  0  0  0  0
    2.9750   -7.9014   36.9840 O   0  0  0  0  0  0  0  0  0  0  0  0
    3.3535   -7.5448   35.7337 C   0  0  0  0  0  0  0  0  0  0  0  0
    4.4990   -7.4794   35.3201 O   0  0  0  0  0  0  0  0  0  0  0  0
    2.1542   -7.3291   34.8824 C   0  0  0  0  0  0  0  0  0  0  0  0
    2.3056   -6.5907   33.7671 C   0  0  0  0  0  0  0  0  0  0  0  0
    1.4126   -6.4900   32.5619 C   0  0  0  0  0  0  0  0  0  0  0  0
    1.3765   -5.2971   31.9245 C   0  0  0  0  0  0  0  0  0  0  0  0
    0.5939   -4.3216   32.7454 C   0  0  0  0  0  0  0  0  0  0  0  0
    1.2728   -3.0518   33.0063 C   0  0  0  0  0  0  0  0  0  0  0  0
    1.4219   -2.0717   32.0269 C   0  0  0  0  0  0  0  0  0  0  0  0
    2.3660   -1.0605   32.2104 C   0  0  0  0  0  0  0  0  0  0  0  0
    3.1858   -1.0560   33.3468 C   0  0  0  0  0  0  0  0  0  0  0  0
    3.0743   -2.0646   34.3054 C   0  0  0  0  0  0  0  0  0  0  0  0
    3.8969   -2.0042   35.4695 N   0  0  0  0  0  0  0  0  0  0  0  0
    4.2897   -3.3567   36.3822 S   0  0  0  0  0  0  0  0  0  0  0  0
    2.9199   -3.4612   37.5170 C   0  0  0  0  0  0  0  0  0  0  0  0
    5.4497   -2.9820   37.1607 O   0  0  0  0  0  0  0  0  0  0  0  0
    4.2982   -4.5328   35.5448 O   0  0  0  0  0  0  0  0  0  0  0  0
    2.0814   -3.0226   34.1480 C   0  0  0  0  0  0  0  0  0  0  0  0
   -0.4821   -4.8296   33.4224 C   0  0  0  0  0  0  0  0  0  0  0  0
   -0.7754   -6.2041   33.2448 N   0  0  0  0  0  0  0  0  0  0  0  0
   -1.6330   -7.1631   33.7430 C   0  0  0  0  0  0  0  0  0  0  0  0
   -2.0967   -7.1959   35.0100 N   0  0  0  0  0  0  0  0  0  0  0  0
   -1.6757   -8.1592   32.8794 N   0  0  0  0  0  0  0  0  0  0  0  0
   -0.5447   -8.0754   32.1059 N   0  0  0  0  0  0  0  0  0  0  0  0
    0.0950   -7.0236   32.5493 C   0  0  0  0  0  0  0  0  0  0  0  0
    5.1243   -9.5874   36.7994 H   0  0  0  0  0  0  0  0  0  0  0  0
    4.0686  -10.2062   38.0670 H   0  0  0  0  0  0  0  0  0  0  0  0
    5.6088   -9.4476   38.5058 H   0  0  0  0  0  0  0  0  0  0  0  0
    3.6308   -7.9426   38.9224 H   0  0  0  0  0  0  0  0  0  0  0  0
    4.7784   -7.2264   37.7988 H   0  0  0  0  0  0  0  0  0  0  0  0
    1.2673   -7.8966   35.1245 H   0  0  0  0  0  0  0  0  0  0  0  0
    3.2339   -6.0207   33.6534 H   0  0  0  0  0  0  0  0  0  0  0  0
    0.9562   -5.2384   30.9119 H   0  0  0  0  0  0  0  0  0  0  0  0
    0.8425   -2.1082   31.1071 H   0  0  0  0  0  0  0  0  0  0  0  0
    2.4827   -0.2861   31.4552 H   0  0  0  0  0  0  0  0  0  0  0  0
    3.9197   -0.2622   33.4595 H   0  0  0  0  0  0  0  0  0  0  0  0
    4.6461   -1.3109   35.4822 H   0  0  0  0  0  0  0  0  0  0  0  0
    3.1379   -4.2676   38.2217 H   0  0  0  0  0  0  0  0  0  0  0  0
    1.9944   -3.6853   36.9908 H   0  0  0  0  0  0  0  0  0  0  0  0
    2.8405   -2.5165   38.0586 H   0  0  0  0  0  0  0  0  0  0  0  0
    1.9690   -3.8275   34.8628 H   0  0  0  0  0  0  0  0  0  0  0  0
   -1.0903   -4.2731   34.1236 H   0  0  0  0  0  0  0  0  0  0  0  0
   -2.1327   -8.1672   35.3352 H   0  0  0  0  0  0  0  0  0  0  0  0
   -1.6315   -6.6002   35.6913 H   0  0  0  0  0  0  0  0  0  0  0  0
  1  2  1  0
  2  3  1  0
  3  4  1  0
  4  5  2  0
  4  6  1  0
  6  7  2  3
  7  8  1  0
  8  9  2  0
  9 10  1  0
 10 11  1  0
 11 12  2  0
 12 13  1  0
 13 14  2  0
 14 15  1  0
 15 16  1  0
 16 17  1  0
 17 18  1  0
 17 19  2  0
 17 20  2  0
 15 21  2  0
 10 22  2  0
 22 23  1  0
 23 24  1  0
 24 25  1  0
 24 26  2  0
 26 27  1  0
 27 28  2  0
 28  8  1  0
 21 11  1  0
 28 23  1  0
  1 29  1  0
  1 30  1  0
  1 31  1  0
  2 32  1  0
  2 33  1  0
  6 34  1  0
  7 35  1  0
  9 36  1  0
 12 37  1  0
 13 38  1  0
 14 39  1  0
 16 40  1  0
 18 41  1  0
 18 42  1  0
 18 43  1  0
 21 44  1  0
 22 45  1  0
 25 46  1  0
 25 47  1  0
M  END
>  <Energy>  (805) 
79.14023750860693

>  <compound_id>  (805) 
3737

>  <target_id>  (805) 
1

>  <reference_id>  (805) 
148

>  <inspiration_ids>  (805) 
[129, 148]

>  <energy_score>  (805) 
17.843848399529136

>  <distance_score>  (805) 
1.4620797267750054

>  <path>  (805) 
/opt/xchem-fragalysis-2/maxwin/BulkDock/SCRATCH/505734/C3737-P148/C3737-P148.minimised.mol

>  <scratch_subdir>  (805) 
/opt/xchem-fragalysis-2/maxwin/BulkDock/SCRATCH/505734/C3737-P148

>  <fragmenstein_runtime>  (805) 
2.686293363571167

>  <fragmenstein_outcome>  (805) 
too moved

>  <fragmenstein_mode>  (805) 
expansion

>  <fragmenstein_error>  (805) 


$$$$
C3739-P129
     RDKit          3D

 39 40  0  0  0  0  0  0  0  0999 V2000
   -0.9318   -4.4305   36.4336 C   0  0  0  0  0  0  0  0  0  0  0  0
    0.1677   -5.4131   36.3691 C   0  0  0  0  0  0  0  0  0  0  0  0
    1.1665   -5.5176   37.2223 N   0  0  0  0  0  0  0  0  0  0  0  0
    1.9519   -6.5765   36.8387 N   0  0  0  0  0  0  0  0  0  0  0  0
    1.4125   -7.0966   35.7646 C   0  0  0  0  0  0  0  0  0  0  0  0
    0.3160   -6.3757   35.4053 N   0  0  0  0  0  0  0  0  0  0  0  0
   -0.4919   -6.6114   34.2279 C   0  0  0  0  0  0  0  0  0  0  0  0
    0.0974   -5.9554   32.9809 C   0  0  0  0  0  0  0  0  0  0  0  0
   -0.0171   -4.5210   33.0130 N   0  0  0  0  0  0  0  0  0  0  0  0
   -1.0330   -3.6381   32.4738 C   0  0  0  0  0  0  0  0  0  0  0  0
   -1.9724   -3.8748   31.8106 O   0  0  0  0  0  0  0  0  0  0  0  0
   -0.5973   -2.3776   33.0801 N   0  0  0  0  0  0  0  0  0  0  0  0
   -1.2652   -1.0518   33.1324 C   0  0  0  0  0  0  0  0  0  0  0  0
    0.3394   -1.6213   32.1176 C   0  0  0  0  0  0  0  0  0  0  0  0
    1.7365   -2.2441   32.1352 C   0  0  0  0  0  0  0  0  0  0  0  0
    2.2958   -2.7833   30.9700 C   0  0  0  0  0  0  0  0  0  0  0  0
    3.5847   -3.3164   30.9943 C   0  0  0  0  0  0  0  0  0  0  0  0
    4.3204   -3.3214   32.1793 C   0  0  0  0  0  0  0  0  0  0  0  0
    3.7727   -2.7899   33.3442 C   0  0  0  0  0  0  0  0  0  0  0  0
    2.4904   -2.2447   33.3215 C   0  0  0  0  0  0  0  0  0  0  0  0
   -1.8956   -4.9393   36.4114 H   0  0  0  0  0  0  0  0  0  0  0  0
   -0.8798   -3.8586   37.3656 H   0  0  0  0  0  0  0  0  0  0  0  0
   -0.8818   -3.7221   35.6051 H   0  0  0  0  0  0  0  0  0  0  0  0
    1.7740   -7.9599   35.2307 H   0  0  0  0  0  0  0  0  0  0  0  0
   -1.5060   -6.2571   34.4286 H   0  0  0  0  0  0  0  0  0  0  0  0
   -0.5460   -7.6967   34.0886 H   0  0  0  0  0  0  0  0  0  0  0  0
   -0.4471   -6.3080   32.0986 H   0  0  0  0  0  0  0  0  0  0  0  0
    1.1575   -6.1995   32.8578 H   0  0  0  0  0  0  0  0  0  0  0  0
    0.6022   -3.9868   33.6116 H   0  0  0  0  0  0  0  0  0  0  0  0
   -2.1754   -1.2504   33.7170 H   0  0  0  0  0  0  0  0  0  0  0  0
   -0.7232   -0.3100   33.7363 H   0  0  0  0  0  0  0  0  0  0  0  0
   -1.6692   -0.6854   32.1756 H   0  0  0  0  0  0  0  0  0  0  0  0
    0.5773   -0.5612   32.3249 H   0  0  0  0  0  0  0  0  0  0  0  0
   -0.0653   -1.7040   31.0957 H   0  0  0  0  0  0  0  0  0  0  0  0
    1.7352   -2.7848   30.0374 H   0  0  0  0  0  0  0  0  0  0  0  0
    4.0199   -3.7223   30.0849 H   0  0  0  0  0  0  0  0  0  0  0  0
    5.3260   -3.7342   32.1942 H   0  0  0  0  0  0  0  0  0  0  0  0
    4.3462   -2.7919   34.2682 H   0  0  0  0  0  0  0  0  0  0  0  0
    2.0763   -1.8218   34.2352 H   0  0  0  0  0  0  0  0  0  0  0  0
  1  2  1  0
  2  3  2  0
  3  4  1  0
  4  5  2  0
  5  6  1  0
  6  7  1  0
  7  8  1  0
  8  9  1  0
  9 10  1  0
 10 11  2  0
 10 12  1  0
 12 13  1  0
 12 14  1  0
 14 15  1  0
 15 16  2  0
 16 17  1  0
 17 18  2  0
 18 19  1  0
 19 20  2  0
  6  2  1  0
 20 15  1  0
  1 21  1  0
  1 22  1  0
  1 23  1  0
  5 24  1  0
  7 25  1  0
  7 26  1  0
  8 27  1  0
  8 28  1  0
  9 29  1  0
 13 30  1  0
 13 31  1  0
 13 32  1  0
 14 33  1  0
 14 34  1  0
 16 35  1  0
 17 36  1  0
 18 37  1  0
 19 38  1  0
 20 39  1  0
M  END
>  <Energy>  (806) 
8.6757564689331499

>  <compound_id>  (806) 
3739

>  <target_id>  (806) 
1

>  <reference_id>  (806) 
129

>  <inspiration_ids>  (806) 
[129, 150]

>  <energy_score>  (806) 
55.183677469177475

>  <distance_score>  (806) 
3.339763586153369

>  <path>  (806) 
/opt/xchem-fragalysis-2/maxwin/BulkDock/SCRATCH/505734/C3739-P129/C3739-P129.minimised.mol

>  <scratch_subdir>  (806) 
/opt/xchem-fragalysis-2/maxwin/BulkDock/SCRATCH/505734/C3739-P129

>  <fragmenstein_runtime>  (806) 
115.79409790039062

>  <fragmenstein_outcome>  (806) 
too moved

>  <fragmenstein_mode>  (806) 
expansion

>  <fragmenstein_error>  (806) 


$$$$
C3739-P150
     RDKit          3D

 39 40  0  0  0  0  0  0  0  0999 V2000
   -0.9946   -4.3375   36.1708 C   0  0  0  0  0  0  0  0  0  0  0  0
   -0.1352   -5.5154   36.3462 C   0  0  0  0  0  0  0  0  0  0  0  0
    0.4448   -5.8429   37.4830 N   0  0  0  0  0  0  0  0  0  0  0  0
    1.2707   -6.9070   37.2505 N   0  0  0  0  0  0  0  0  0  0  0  0
    1.1546   -7.2243   35.9867 C   0  0  0  0  0  0  0  0  0  0  0  0
    0.2498   -6.4111   35.3811 N   0  0  0  0  0  0  0  0  0  0  0  0
   -0.1937   -6.5647   34.0113 C   0  0  0  0  0  0  0  0  0  0  0  0
    0.6144   -5.7368   33.0297 C   0  0  0  0  0  0  0  0  0  0  0  0
    0.1960   -4.3722   33.0865 N   0  0  0  0  0  0  0  0  0  0  0  0
   -0.9413   -3.6505   32.3554 C   0  0  0  0  0  0  0  0  0  0  0  0
   -1.7492   -4.0591   31.6639 O   0  0  0  0  0  0  0  0  0  0  0  0
   -0.7353   -2.2471   32.9030 N   0  0  0  0  0  0  0  0  0  0  0  0
   -1.5815   -1.0282   32.7776 C   0  0  0  0  0  0  0  0  0  0  0  0
    0.1487   -1.4151   31.9721 C   0  0  0  0  0  0  0  0  0  0  0  0
    1.6017   -1.8857   32.1384 C   0  0  0  0  0  0  0  0  0  0  0  0
    2.3397   -2.3191   31.0348 C   0  0  0  0  0  0  0  0  0  0  0  0
    3.6777   -2.6718   31.1940 C   0  0  0  0  0  0  0  0  0  0  0  0
    4.2821   -2.6136   32.4509 C   0  0  0  0  0  0  0  0  0  0  0  0
    3.5535   -2.2018   33.5600 C   0  0  0  0  0  0  0  0  0  0  0  0
    2.2234   -1.8261   33.4014 C   0  0  0  0  0  0  0  0  0  0  0  0
   -0.4865   -3.4506   36.5649 H   0  0  0  0  0  0  0  0  0  0  0  0
   -1.9145   -4.4625   36.7412 H   0  0  0  0  0  0  0  0  0  0  0  0
   -1.2373   -4.1254   35.1364 H   0  0  0  0  0  0  0  0  0  0  0  0
    1.6849   -8.0186   35.4886 H   0  0  0  0  0  0  0  0  0  0  0  0
   -1.2610   -6.3300   33.9754 H   0  0  0  0  0  0  0  0  0  0  0  0
   -0.0950   -7.6261   33.7620 H   0  0  0  0  0  0  0  0  0  0  0  0
    1.6892   -5.7777   33.2304 H   0  0  0  0  0  0  0  0  0  0  0  0
    0.4264   -6.0920   32.0115 H   0  0  0  0  0  0  0  0  0  0  0  0
    0.6830   -3.7182   33.6855 H   0  0  0  0  0  0  0  0  0  0  0  0
   -2.5074   -1.3200   33.2958 H   0  0  0  0  0  0  0  0  0  0  0  0
   -1.9480   -0.7952   31.7645 H   0  0  0  0  0  0  0  0  0  0  0  0
   -1.2212   -0.1720   33.3672 H   0  0  0  0  0  0  0  0  0  0  0  0
    0.2612   -0.3286   32.1480 H   0  0  0  0  0  0  0  0  0  0  0  0
   -0.1502   -1.6016   30.9276 H   0  0  0  0  0  0  0  0  0  0  0  0
    1.8879   -2.3670   30.0465 H   0  0  0  0  0  0  0  0  0  0  0  0
    4.2579   -2.9922   30.3319 H   0  0  0  0  0  0  0  0  0  0  0  0
    5.3280   -2.8895   32.5618 H   0  0  0  0  0  0  0  0  0  0  0  0
    4.0247   -2.1511   34.5381 H   0  0  0  0  0  0  0  0  0  0  0  0
    1.6650   -1.4720   34.2667 H   0  0  0  0  0  0  0  0  0  0  0  0
  1  2  1  0
  2  3  2  0
  3  4  1  0
  4  5  2  0
  5  6  1  0
  6  7  1  0
  7  8  1  0
  8  9  1  0
  9 10  1  0
 10 11  2  0
 10 12  1  0
 12 13  1  0
 12 14  1  0
 14 15  1  0
 15 16  2  0
 16 17  1  0
 17 18  2  0
 18 19  1  0
 19 20  2  0
  6  2  1  0
 20 15  1  0
  1 21  1  0
  1 22  1  0
  1 23  1  0
  5 24  1  0
  7 25  1  0
  7 26  1  0
  8 27  1  0
  8 28  1  0
  9 29  1  0
 13 30  1  0
 13 31  1  0
 13 32  1  0
 14 33  1  0
 14 34  1  0
 16 35  1  0
 17 36  1  0
 18 37  1  0
 19 38  1  0
 20 39  1  0
M  END
>  <Energy>  (807) 
27.904556880557159

>  <compound_id>  (807) 
3739

>  <target_id>  (807) 
1

>  <reference_id>  (807) 
150

>  <inspiration_ids>  (807) 
[129, 150]

>  <energy_score>  (807) 
69.80469406716074

>  <distance_score>  (807) 
3.1734271723838665

>  <path>  (807) 
/opt/xchem-fragalysis-2/maxwin/BulkDock/SCRATCH/505734/C3739-P150/C3739-P150.minimised.mol

>  <scratch_subdir>  (807) 
/opt/xchem-fragalysis-2/maxwin/BulkDock/SCRATCH/505734/C3739-P150

>  <fragmenstein_runtime>  (807) 
114.58271050453186

>  <fragmenstein_outcome>  (807) 
too moved

>  <fragmenstein_mode>  (807) 
expansion

>  <fragmenstein_error>  (807) 


$$$$
C3743-P129
     RDKit          3D

 68 71  0  0  0  0  0  0  0  0999 V2000
    7.5684   -9.6379   29.8390 C   0  0  0  0  0  0  0  0  0  0  0  0
    7.9302   -8.2875   29.2996 C   0  0  0  0  0  0  0  0  0  0  0  0
    9.2734   -7.9320   29.2329 C   0  0  0  0  0  0  0  0  0  0  0  0
    9.6057   -6.6892   28.7237 C   0  0  0  0  0  0  0  0  0  0  0  0
    8.5875   -5.8404   28.3157 C   0  0  0  0  0  0  0  0  0  0  0  0
    7.2607   -6.2483   28.4437 C   0  0  0  0  0  0  0  0  0  0  0  0
    6.3201   -5.3152   28.0404 N   0  0  0  0  0  0  0  0  0  0  0  0
    4.8804   -5.3748   28.0074 C   0  0  0  0  0  0  0  0  0  0  0  0
    4.1198   -6.2217   28.3960 O   0  0  0  0  0  0  0  0  0  0  0  0
    4.2658   -4.0429   27.4097 C   0  0  0  0  0  0  0  0  0  0  0  0
    5.1500   -3.3426   26.3575 C   0  0  0  0  0  0  0  0  0  0  0  0
    5.9054   -2.2374   27.1144 C   0  0  0  0  0  0  0  0  0  0  0  0
    5.3751   -2.2636   28.5548 C   0  0  0  0  0  0  0  0  0  0  0  0
    3.9728   -2.9010   28.4407 C   0  0  0  0  0  0  0  0  0  0  0  0
    2.9915   -1.8497   27.8600 C   0  0  0  0  0  0  0  0  0  0  0  0
    2.7478   -0.6540   28.7873 C   0  0  0  0  0  0  0  0  0  0  0  0
    2.8457   -1.0066   30.2694 C   0  0  0  0  0  0  0  0  0  0  0  0
    2.4418   -2.4536   30.5492 C   0  0  0  0  0  0  0  0  0  0  0  0
    0.9113   -2.7318   30.2830 C   0  0  0  0  0  0  0  0  0  0  0  0
    0.0572   -2.3748   31.5414 N   0  0  0  0  0  0  0  0  0  0  0  0
   -0.4731   -1.3335   30.6271 C   0  0  0  0  0  0  0  0  0  0  0  0
   -0.5768   -3.5802   32.0767 C   0  0  0  0  0  0  0  0  0  0  0  0
   -1.6246   -4.0555   31.8399 O   0  0  0  0  0  0  0  0  0  0  0  0
    0.5011   -4.0513   32.9313 N   0  0  0  0  0  0  0  0  0  0  0  0
    0.5759   -5.1893   33.8175 C   0  0  0  0  0  0  0  0  0  0  0  0
   -0.5258   -6.2384   33.6678 C   0  0  0  0  0  0  0  0  0  0  0  0
   -0.5852   -6.9902   32.4367 N   0  0  0  0  0  0  0  0  0  0  0  0
    0.0724   -6.8058   31.2633 C   0  0  0  0  0  0  0  0  0  0  0  0
   -0.3200   -7.7042   30.3875 N   0  0  0  0  0  0  0  0  0  0  0  0
   -1.2504   -8.5020   31.0039 N   0  0  0  0  0  0  0  0  0  0  0  0
   -1.3987   -8.0633   32.2314 C   0  0  0  0  0  0  0  0  0  0  0  0
    3.3822   -3.4282   29.7755 C   0  0  0  0  0  0  0  0  0  0  0  0
    6.9197   -7.4539   28.9300 N   0  0  0  0  0  0  0  0  0  0  0  0
    7.4759   -9.5958   30.9280 H   0  0  0  0  0  0  0  0  0  0  0  0
    8.3250  -10.3845   29.5753 H   0  0  0  0  0  0  0  0  0  0  0  0
    6.6258   -9.9725   29.4127 H   0  0  0  0  0  0  0  0  0  0  0  0
   10.0494   -8.6187   29.5556 H   0  0  0  0  0  0  0  0  0  0  0  0
   10.6446   -6.3861   28.6378 H   0  0  0  0  0  0  0  0  0  0  0  0
    8.8409   -4.8703   27.8997 H   0  0  0  0  0  0  0  0  0  0  0  0
    6.6182   -4.4215   27.7011 H   0  0  0  0  0  0  0  0  0  0  0  0
    3.3359   -4.3604   26.9180 H   0  0  0  0  0  0  0  0  0  0  0  0
    5.8276   -4.0201   25.8282 H   0  0  0  0  0  0  0  0  0  0  0  0
    4.5242   -2.8809   25.5857 H   0  0  0  0  0  0  0  0  0  0  0  0
    5.7077   -1.2656   26.6478 H   0  0  0  0  0  0  0  0  0  0  0  0
    6.9897   -2.3879   27.0879 H   0  0  0  0  0  0  0  0  0  0  0  0
    6.0316   -2.8722   29.1870 H   0  0  0  0  0  0  0  0  0  0  0  0
    5.3851   -1.2577   28.9816 H   0  0  0  0  0  0  0  0  0  0  0  0
    2.0375   -2.3474   27.6615 H   0  0  0  0  0  0  0  0  0  0  0  0
    3.3217   -1.4540   26.8948 H   0  0  0  0  0  0  0  0  0  0  0  0
    3.4675    0.1436   28.5660 H   0  0  0  0  0  0  0  0  0  0  0  0
    1.7618   -0.2327   28.5597 H   0  0  0  0  0  0  0  0  0  0  0  0
    3.8806   -0.8651   30.6057 H   0  0  0  0  0  0  0  0  0  0  0  0
    2.2635   -0.3001   30.8697 H   0  0  0  0  0  0  0  0  0  0  0  0
    2.6266   -2.6408   31.6137 H   0  0  0  0  0  0  0  0  0  0  0  0
    0.8206   -3.8255   30.2072 H   0  0  0  0  0  0  0  0  0  0  0  0
    0.6002   -2.4305   29.2687 H   0  0  0  0  0  0  0  0  0  0  0  0
    0.2314   -0.5689   30.2902 H   0  0  0  0  0  0  0  0  0  0  0  0
   -1.1710   -0.7739   31.2673 H   0  0  0  0  0  0  0  0  0  0  0  0
   -1.1419   -1.7356   29.8499 H   0  0  0  0  0  0  0  0  0  0  0  0
    1.2267   -3.3481   32.9665 H   0  0  0  0  0  0  0  0  0  0  0  0
    1.5625   -5.6415   33.6680 H   0  0  0  0  0  0  0  0  0  0  0  0
    0.5522   -4.7854   34.8354 H   0  0  0  0  0  0  0  0  0  0  0  0
   -0.4010   -6.9798   34.4674 H   0  0  0  0  0  0  0  0  0  0  0  0
   -1.5066   -5.7790   33.8038 H   0  0  0  0  0  0  0  0  0  0  0  0
    0.8042   -6.0345   31.0799 H   0  0  0  0  0  0  0  0  0  0  0  0
   -2.0584   -8.4750   32.9814 H   0  0  0  0  0  0  0  0  0  0  0  0
    2.8308   -4.3583   29.5973 H   0  0  0  0  0  0  0  0  0  0  0  0
    4.2111   -3.7031   30.4413 H   0  0  0  0  0  0  0  0  0  0  0  0
  1  2  1  0
  2  3  2  0
  3  4  1  0
  4  5  2  0
  5  6  1  0
  6  7  1  0
  7  8  1  0
  8  9  2  0
  8 10  1  0
 10 11  1  0
 11 12  1  0
 12 13  1  0
 13 14  1  0
 14 15  1  0
 15 16  1  0
 16 17  1  0
 17 18  1  0
 18 19  1  0
 19 20  1  0
 20 21  1  0
 20 22  1  0
 22 23  2  0
 22 24  1  0
 24 25  1  0
 25 26  1  0
 26 27  1  0
 27 28  1  0
 28 29  2  0
 29 30  1  0
 30 31  2  0
 18 32  1  0
  6 33  2  0
 33  2  1  0
 14 10  1  0
 31 27  1  0
 32 14  1  0
  1 34  1  0
  1 35  1  0
  1 36  1  0
  3 37  1  0
  4 38  1  0
  5 39  1  0
  7 40  1  0
 10 41  1  0
 11 42  1  0
 11 43  1  0
 12 44  1  0
 12 45  1  0
 13 46  1  0
 13 47  1  0
 15 48  1  0
 15 49  1  0
 16 50  1  0
 16 51  1  0
 17 52  1  0
 17 53  1  0
 18 54  1  0
 19 55  1  0
 19 56  1  0
 21 57  1  0
 21 58  1  0
 21 59  1  0
 24 60  1  0
 25 61  1  0
 25 62  1  0
 26 63  1  0
 26 64  1  0
 28 65  1  0
 31 66  1  0
 32 67  1  0
 32 68  1  0
M  END
>  <Energy>  (808) 
34.546105468348358

>  <compound_id>  (808) 
3743

>  <target_id>  (808) 
1

>  <reference_id>  (808) 
129

>  <inspiration_ids>  (808) 
[129, 155]

>  <energy_score>  (808) 
37.58300866012189

>  <distance_score>  (808) 
2.0272574494381987

>  <path>  (808) 
/opt/xchem-fragalysis-2/maxwin/BulkDock/SCRATCH/505734/C3743-P129/C3743-P129.minimised.mol

>  <scratch_subdir>  (808) 
/opt/xchem-fragalysis-2/maxwin/BulkDock/SCRATCH/505734/C3743-P129

>  <fragmenstein_runtime>  (808) 
30.062267065048218

>  <fragmenstein_outcome>  (808) 
too moved

>  <fragmenstein_mode>  (808) 
expansion

>  <fragmenstein_error>  (808) 


$$$$
C3743-P155
     RDKit          3D

 68 71  0  0  0  0  0  0  0  0999 V2000
    7.5683   -9.7791   29.6895 C   0  0  0  0  0  0  0  0  0  0  0  0
    7.9347   -8.3862   29.2735 C   0  0  0  0  0  0  0  0  0  0  0  0
    9.2624   -7.9807   29.3490 C   0  0  0  0  0  0  0  0  0  0  0  0
    9.5902   -6.7008   28.9332 C   0  0  0  0  0  0  0  0  0  0  0  0
    8.5827   -5.8668   28.4687 C   0  0  0  0  0  0  0  0  0  0  0  0
    7.2689   -6.3265   28.4578 C   0  0  0  0  0  0  0  0  0  0  0  0
    6.3233   -5.4307   27.9889 N   0  0  0  0  0  0  0  0  0  0  0  0
    4.8906   -5.5340   27.8877 C   0  0  0  0  0  0  0  0  0  0  0  0
    4.1372   -6.3946   28.2579 O   0  0  0  0  0  0  0  0  0  0  0  0
    4.2678   -4.2505   27.2070 C   0  0  0  0  0  0  0  0  0  0  0  0
    5.1735   -3.5655   26.1649 C   0  0  0  0  0  0  0  0  0  0  0  0
    5.8567   -2.4021   26.8990 C   0  0  0  0  0  0  0  0  0  0  0  0
    5.2531   -2.3736   28.3086 C   0  0  0  0  0  0  0  0  0  0  0  0
    3.8848   -3.0755   28.1646 C   0  0  0  0  0  0  0  0  0  0  0  0
    2.8794   -2.1101   27.4854 C   0  0  0  0  0  0  0  0  0  0  0  0
    2.5570   -0.8694   28.3245 C   0  0  0  0  0  0  0  0  0  0  0  0
    2.6384   -1.1167   29.8293 C   0  0  0  0  0  0  0  0  0  0  0  0
    2.2882   -2.5570   30.2035 C   0  0  0  0  0  0  0  0  0  0  0  0
    0.7656   -2.8948   29.9640 C   0  0  0  0  0  0  0  0  0  0  0  0
   -0.0899   -2.4449   31.1940 N   0  0  0  0  0  0  0  0  0  0  0  0
   -0.6723   -1.5233   30.1861 C   0  0  0  0  0  0  0  0  0  0  0  0
   -0.6689   -3.6141   31.8585 C   0  0  0  0  0  0  0  0  0  0  0  0
   -1.6988   -4.1516   31.6867 O   0  0  0  0  0  0  0  0  0  0  0  0
    0.4316   -3.9480   32.7467 N   0  0  0  0  0  0  0  0  0  0  0  0
    0.6354   -5.0859   33.6133 C   0  0  0  0  0  0  0  0  0  0  0  0
   -0.4314   -6.1813   33.5650 C   0  0  0  0  0  0  0  0  0  0  0  0
   -0.5521   -6.9551   32.3510 N   0  0  0  0  0  0  0  0  0  0  0  0
    0.0979   -6.8367   31.1647 C   0  0  0  0  0  0  0  0  0  0  0  0
   -0.3583   -7.7312   30.3154 N   0  0  0  0  0  0  0  0  0  0  0  0
   -1.3154   -8.4672   30.9662 N   0  0  0  0  0  0  0  0  0  0  0  0
   -1.4200   -7.9913   32.1849 C   0  0  0  0  0  0  0  0  0  0  0  0
    3.2549   -3.5566   29.4972 C   0  0  0  0  0  0  0  0  0  0  0  0
    6.9337   -7.5647   28.8582 N   0  0  0  0  0  0  0  0  0  0  0  0
    7.2400   -9.7857   30.7324 H   0  0  0  0  0  0  0  0  0  0  0  0
    8.4176  -10.4627   29.5853 H   0  0  0  0  0  0  0  0  0  0  0  0
    6.7698  -10.1620   29.0538 H   0  0  0  0  0  0  0  0  0  0  0  0
   10.0324   -8.6575   29.7059 H   0  0  0  0  0  0  0  0  0  0  0  0
   10.6205   -6.3596   28.9594 H   0  0  0  0  0  0  0  0  0  0  0  0
    8.8338   -4.8693   28.1234 H   0  0  0  0  0  0  0  0  0  0  0  0
    6.6116   -4.5354   27.6445 H   0  0  0  0  0  0  0  0  0  0  0  0
    3.3754   -4.6184   26.6831 H   0  0  0  0  0  0  0  0  0  0  0  0
    5.8935   -4.2400   25.6912 H   0  0  0  0  0  0  0  0  0  0  0  0
    4.5597   -3.1555   25.3553 H   0  0  0  0  0  0  0  0  0  0  0  0
    6.9445   -2.5207   26.9356 H   0  0  0  0  0  0  0  0  0  0  0  0
    5.6562   -1.4615   26.3731 H   0  0  0  0  0  0  0  0  0  0  0  0
    5.9000   -2.9200   29.0046 H   0  0  0  0  0  0  0  0  0  0  0  0
    5.2048   -1.3462   28.6763 H   0  0  0  0  0  0  0  0  0  0  0  0
    1.9538   -2.6643   27.2971 H   0  0  0  0  0  0  0  0  0  0  0  0
    3.2199   -1.7682   26.5029 H   0  0  0  0  0  0  0  0  0  0  0  0
    3.2429   -0.0541   28.0636 H   0  0  0  0  0  0  0  0  0  0  0  0
    1.5574   -0.5133   28.0496 H   0  0  0  0  0  0  0  0  0  0  0  0
    3.6578   -0.9078   30.1764 H   0  0  0  0  0  0  0  0  0  0  0  0
    2.0153   -0.3955   30.3681 H   0  0  0  0  0  0  0  0  0  0  0  0
    2.4822   -2.6647   31.2769 H   0  0  0  0  0  0  0  0  0  0  0  0
    0.6961   -3.9919   29.9798 H   0  0  0  0  0  0  0  0  0  0  0  0
    0.4571   -2.6777   28.9269 H   0  0  0  0  0  0  0  0  0  0  0  0
   -0.0027   -0.7674   29.7673 H   0  0  0  0  0  0  0  0  0  0  0  0
   -1.3904   -0.9334   30.7745 H   0  0  0  0  0  0  0  0  0  0  0  0
   -1.3265   -2.0305   29.4594 H   0  0  0  0  0  0  0  0  0  0  0  0
    1.1295   -3.2185   32.6971 H   0  0  0  0  0  0  0  0  0  0  0  0
    1.6216   -5.4961   33.3694 H   0  0  0  0  0  0  0  0  0  0  0  0
    0.6947   -4.6847   34.6308 H   0  0  0  0  0  0  0  0  0  0  0  0
   -0.2134   -6.9068   34.3590 H   0  0  0  0  0  0  0  0  0  0  0  0
   -1.4180   -5.7589   33.7720 H   0  0  0  0  0  0  0  0  0  0  0  0
    0.8689   -6.1116   30.9541 H   0  0  0  0  0  0  0  0  0  0  0  0
   -2.0848   -8.3493   32.9570 H   0  0  0  0  0  0  0  0  0  0  0  0
    2.7138   -4.4955   29.3329 H   0  0  0  0  0  0  0  0  0  0  0  0
    4.0627   -3.8047   30.1985 H   0  0  0  0  0  0  0  0  0  0  0  0
  1  2  1  0
  2  3  2  0
  3  4  1  0
  4  5  2  0
  5  6  1  0
  6  7  1  0
  7  8  1  0
  8  9  2  0
  8 10  1  0
 10 11  1  0
 11 12  1  0
 12 13  1  0
 13 14  1  0
 14 15  1  0
 15 16  1  0
 16 17  1  0
 17 18  1  0
 18 19  1  0
 19 20  1  0
 20 21  1  0
 20 22  1  0
 22 23  2  0
 22 24  1  0
 24 25  1  0
 25 26  1  0
 26 27  1  0
 27 28  1  0
 28 29  2  0
 29 30  1  0
 30 31  2  0
 18 32  1  0
  6 33  2  0
 33  2  1  0
 14 10  1  0
 31 27  1  0
 32 14  1  0
  1 34  1  0
  1 35  1  0
  1 36  1  0
  3 37  1  0
  4 38  1  0
  5 39  1  0
  7 40  1  0
 10 41  1  0
 11 42  1  0
 11 43  1  0
 12 44  1  0
 12 45  1  0
 13 46  1  0
 13 47  1  0
 15 48  1  0
 15 49  1  0
 16 50  1  0
 16 51  1  0
 17 52  1  0
 17 53  1  0
 18 54  1  0
 19 55  1  0
 19 56  1  0
 21 57  1  0
 21 58  1  0
 21 59  1  0
 24 60  1  0
 25 61  1  0
 25 62  1  0
 26 63  1  0
 26 64  1  0
 28 65  1  0
 31 66  1  0
 32 67  1  0
 32 68  1  0
M  END
>  <Energy>  (809) 
34.384570140717578

>  <compound_id>  (809) 
3743

>  <target_id>  (809) 
1

>  <reference_id>  (809) 
155

>  <inspiration_ids>  (809) 
[129, 155]

>  <energy_score>  (809) 
37.42147333249545

>  <distance_score>  (809) 
1.9881153973338397

>  <path>  (809) 
/opt/xchem-fragalysis-2/maxwin/BulkDock/SCRATCH/505734/C3743-P155/C3743-P155.minimised.mol

>  <scratch_subdir>  (809) 
/opt/xchem-fragalysis-2/maxwin/BulkDock/SCRATCH/505734/C3743-P155

>  <fragmenstein_runtime>  (809) 
31.931875944137573

>  <fragmenstein_outcome>  (809) 
too moved

>  <fragmenstein_mode>  (809) 
expansion

>  <fragmenstein_error>  (809) 


$$$$
C3745-P129
     RDKit          3D

 54 57  0  0  0  0  0  0  0  0999 V2000
    2.9820   -7.2106   38.7407 C   0  0  0  0  0  0  0  0  0  0  0  0
    1.7966   -7.0439   39.5242 O   0  0  0  0  0  0  0  0  0  0  0  0
    0.5487   -7.1465   38.9925 C   0  0  0  0  0  0  0  0  0  0  0  0
   -0.4208   -7.2270   39.7450 O   0  0  0  0  0  0  0  0  0  0  0  0
    0.3991   -7.2142   37.4701 C   0  0  0  0  0  0  0  0  0  0  0  0
    0.9759   -6.0497   36.8286 N   0  0  0  0  0  0  0  0  0  0  0  0
    1.7276   -6.2580   35.6334 C   0  0  0  0  0  0  0  0  0  0  0  0
    2.7925   -5.2716   35.6174 N   0  0  0  0  0  0  0  0  0  0  0  0
    2.8243   -4.3453   34.7096 C   0  0  0  0  0  0  0  0  0  0  0  0
    3.7941   -3.3849   34.8911 N   0  0  0  0  0  0  0  0  0  0  0  0
    4.2816   -3.1223   36.2437 C   0  0  0  0  0  0  0  0  0  0  0  0
    3.3368   -2.2114   37.0336 C   0  0  0  0  0  0  0  0  0  0  0  0
    2.0232   -2.7014   37.3559 N   0  0  0  0  0  0  0  0  0  0  0  0
    0.8783   -2.4716   36.6548 C   0  0  0  0  0  0  0  0  0  0  0  0
   -0.1490   -2.9321   37.3296 N   0  0  0  0  0  0  0  0  0  0  0  0
    0.3301   -3.4500   38.5104 N   0  0  0  0  0  0  0  0  0  0  0  0
    1.6363   -3.3054   38.5115 C   0  0  0  0  0  0  0  0  0  0  0  0
    1.9658   -4.2005   33.6226 N   0  0  0  0  0  0  0  0  0  0  0  0
    1.9945   -3.1125   32.6664 C   0  0  0  0  0  0  0  0  0  0  0  0
    1.0563   -5.2074   33.4712 C   0  0  0  0  0  0  0  0  0  0  0  0
    0.9118   -6.1664   34.4357 C   0  0  0  0  0  0  0  0  0  0  0  0
   -0.0506   -7.0663   34.0793 N   0  0  0  0  0  0  0  0  0  0  0  0
   -0.3833   -6.7947   32.7914 C   0  0  0  0  0  0  0  0  0  0  0  0
    0.1914   -5.5851   32.4349 C   0  0  0  0  0  0  0  0  0  0  0  0
   -0.0509   -5.0366   31.1041 C   0  0  0  0  0  0  0  0  0  0  0  0
    0.0270   -6.1935   30.1335 C   0  0  0  0  0  0  0  0  0  0  0  0
   -0.7569   -7.4716   30.4688 C   0  0  0  0  0  0  0  0  0  0  0  0
   -1.1664   -7.6897   31.9217 C   0  0  0  0  0  0  0  0  0  0  0  0
    3.7839   -7.5118   39.4214 H   0  0  0  0  0  0  0  0  0  0  0  0
    2.8758   -7.9991   37.9922 H   0  0  0  0  0  0  0  0  0  0  0  0
    3.2685   -6.2577   38.2912 H   0  0  0  0  0  0  0  0  0  0  0  0
    0.8321   -8.1606   37.1373 H   0  0  0  0  0  0  0  0  0  0  0  0
   -0.6625   -7.2480   37.2173 H   0  0  0  0  0  0  0  0  0  0  0  0
    0.3652   -5.2318   36.8062 H   0  0  0  0  0  0  0  0  0  0  0  0
    2.2238   -7.2366   35.6479 H   0  0  0  0  0  0  0  0  0  0  0  0
    3.8150   -2.5907   34.2746 H   0  0  0  0  0  0  0  0  0  0  0  0
    5.2473   -2.6121   36.1477 H   0  0  0  0  0  0  0  0  0  0  0  0
    4.4868   -4.0462   36.7969 H   0  0  0  0  0  0  0  0  0  0  0  0
    3.1992   -1.2691   36.4871 H   0  0  0  0  0  0  0  0  0  0  0  0
    3.8180   -1.9465   37.9836 H   0  0  0  0  0  0  0  0  0  0  0  0
    0.8388   -1.9874   35.6905 H   0  0  0  0  0  0  0  0  0  0  0  0
    2.3079   -3.6129   39.2999 H   0  0  0  0  0  0  0  0  0  0  0  0
    2.6078   -3.3763   31.7990 H   0  0  0  0  0  0  0  0  0  0  0  0
    2.3875   -2.1845   33.0911 H   0  0  0  0  0  0  0  0  0  0  0  0
    0.9868   -2.8371   32.3371 H   0  0  0  0  0  0  0  0  0  0  0  0
   -0.3593   -7.8639   34.6272 H   0  0  0  0  0  0  0  0  0  0  0  0
   -1.0339   -4.5553   31.0758 H   0  0  0  0  0  0  0  0  0  0  0  0
    0.6805   -4.2898   30.7933 H   0  0  0  0  0  0  0  0  0  0  0  0
   -0.3270   -5.7819   29.1949 H   0  0  0  0  0  0  0  0  0  0  0  0
    1.0799   -6.4625   29.9826 H   0  0  0  0  0  0  0  0  0  0  0  0
   -1.6468   -7.4584   29.8452 H   0  0  0  0  0  0  0  0  0  0  0  0
   -0.1786   -8.3349   30.1170 H   0  0  0  0  0  0  0  0  0  0  0  0
   -2.2292   -7.4915   32.0417 H   0  0  0  0  0  0  0  0  0  0  0  0
   -1.0242   -8.7389   32.1907 H   0  0  0  0  0  0  0  0  0  0  0  0
  1  2  1  0
  2  3  1  0
  3  4  2  0
  3  5  1  0
  5  6  1  0
  6  7  1  0
  7  8  1  0
  8  9  2  0
  9 10  1  0
 10 11  1  0
 11 12  1  0
 12 13  1  0
 13 14  1  0
 14 15  2  0
 15 16  1  0
 16 17  2  0
  9 18  1  0
 18 19  1  0
 18 20  1  0
 20 21  2  0
 21 22  1  0
 22 23  1  0
 23 24  2  0
 24 25  1  0
 25 26  1  0
 26 27  1  0
 27 28  1  0
 21  7  1  0
 28 23  1  0
 17 13  1  0
 24 20  1  0
  1 29  1  0
  1 30  1  0
  1 31  1  0
  5 32  1  0
  5 33  1  0
  6 34  1  0
  7 35  1  0
 10 36  1  0
 11 37  1  0
 11 38  1  0
 12 39  1  0
 12 40  1  0
 14 41  1  0
 17 42  1  0
 19 43  1  0
 19 44  1  0
 19 45  1  0
 22 46  1  0
 25 47  1  0
 25 48  1  0
 26 49  1  0
 26 50  1  0
 27 51  1  0
 27 52  1  0
 28 53  1  0
 28 54  1  0
M  END
>  <Energy>  (810) 
-79.703962783219396

>  <compound_id>  (810) 
3745

>  <target_id>  (810) 
1

>  <reference_id>  (810) 
129

>  <inspiration_ids>  (810) 
[129, 158]

>  <energy_score>  (810) 
-24.277064792265747

>  <distance_score>  (810) 
2.2889330949616

>  <path>  (810) 
/opt/xchem-fragalysis-2/maxwin/BulkDock/SCRATCH/505734/C3745-P129/C3745-P129.minimised.mol

>  <scratch_subdir>  (810) 
/opt/xchem-fragalysis-2/maxwin/BulkDock/SCRATCH/505734/C3745-P129

>  <fragmenstein_runtime>  (810) 
3.949349880218506

>  <fragmenstein_outcome>  (810) 
too moved

>  <fragmenstein_mode>  (810) 
expansion

>  <fragmenstein_error>  (810) 


$$$$
C3745-P158
     RDKit          3D

 54 57  0  0  0  0  0  0  0  0999 V2000
    3.3121   -6.4840   39.3159 C   0  0  0  0  0  0  0  0  0  0  0  0
    2.7654   -7.0567   38.1258 O   0  0  0  0  0  0  0  0  0  0  0  0
    3.4702   -6.8354   36.9783 C   0  0  0  0  0  0  0  0  0  0  0  0
    4.4965   -6.1741   36.8980 O   0  0  0  0  0  0  0  0  0  0  0  0
    2.8303   -7.6310   35.8462 C   0  0  0  0  0  0  0  0  0  0  0  0
    2.9771   -7.0658   34.4919 N   0  0  0  0  0  0  0  0  0  0  0  0
    2.3092   -5.8092   34.3439 C   0  0  0  0  0  0  0  0  0  0  0  0
    3.1760   -4.7064   34.6845 N   0  0  0  0  0  0  0  0  0  0  0  0
    2.8101   -3.5463   34.2131 C   0  0  0  0  0  0  0  0  0  0  0  0
    3.4825   -2.4505   34.7038 N   0  0  0  0  0  0  0  0  0  0  0  0
    4.2733   -2.5928   35.9320 C   0  0  0  0  0  0  0  0  0  0  0  0
    3.3892   -2.9469   37.1347 C   0  0  0  0  0  0  0  0  0  0  0  0
    4.0984   -2.8172   38.3881 N   0  0  0  0  0  0  0  0  0  0  0  0
    3.7645   -2.0120   39.4318 C   0  0  0  0  0  0  0  0  0  0  0  0
    4.6308   -2.1795   40.4041 N   0  0  0  0  0  0  0  0  0  0  0  0
    5.5484   -3.1182   39.9885 N   0  0  0  0  0  0  0  0  0  0  0  0
    5.2142   -3.4925   38.7748 C   0  0  0  0  0  0  0  0  0  0  0  0
    1.7502   -3.2841   33.3239 N   0  0  0  0  0  0  0  0  0  0  0  0
    1.7056   -2.0795   32.5107 C   0  0  0  0  0  0  0  0  0  0  0  0
    1.2762   -4.3841   32.6671 C   0  0  0  0  0  0  0  0  0  0  0  0
    1.8020   -5.5938   32.9877 C   0  0  0  0  0  0  0  0  0  0  0  0
    1.2825   -6.4527   32.0696 N   0  0  0  0  0  0  0  0  0  0  0  0
   -0.0071   -6.0781   31.8522 C   0  0  0  0  0  0  0  0  0  0  0  0
   -0.0537   -4.8570   32.5145 C   0  0  0  0  0  0  0  0  0  0  0  0
   -1.0788   -4.7558   33.5859 C   0  0  0  0  0  0  0  0  0  0  0  0
   -1.2783   -6.1997   34.2150 C   0  0  0  0  0  0  0  0  0  0  0  0
   -1.4861   -7.3955   33.2492 C   0  0  0  0  0  0  0  0  0  0  0  0
   -1.0381   -7.1453   31.8099 C   0  0  0  0  0  0  0  0  0  0  0  0
    4.4041   -6.5503   39.3389 H   0  0  0  0  0  0  0  0  0  0  0  0
    2.9806   -5.4469   39.4031 H   0  0  0  0  0  0  0  0  0  0  0  0
    2.9197   -7.0447   40.1689 H   0  0  0  0  0  0  0  0  0  0  0  0
    3.3625   -8.5833   35.8396 H   0  0  0  0  0  0  0  0  0  0  0  0
    1.7725   -7.8181   36.0587 H   0  0  0  0  0  0  0  0  0  0  0  0
    3.9653   -6.8035   34.4036 H   0  0  0  0  0  0  0  0  0  0  0  0
    1.4719   -5.7664   35.0464 H   0  0  0  0  0  0  0  0  0  0  0  0
    2.9467   -1.5936   34.6840 H   0  0  0  0  0  0  0  0  0  0  0  0
    4.7777   -1.6356   36.1119 H   0  0  0  0  0  0  0  0  0  0  0  0
    5.0697   -3.3336   35.7910 H   0  0  0  0  0  0  0  0  0  0  0  0
    2.9998   -3.9665   37.0947 H   0  0  0  0  0  0  0  0  0  0  0  0
    2.5231   -2.2746   37.1739 H   0  0  0  0  0  0  0  0  0  0  0  0
    2.9132   -1.3462   39.4452 H   0  0  0  0  0  0  0  0  0  0  0  0
    5.7270   -4.2260   38.1669 H   0  0  0  0  0  0  0  0  0  0  0  0
    2.5956   -2.0027   31.8756 H   0  0  0  0  0  0  0  0  0  0  0  0
    1.6450   -1.1841   33.1376 H   0  0  0  0  0  0  0  0  0  0  0  0
    0.8211   -2.0537   31.8616 H   0  0  0  0  0  0  0  0  0  0  0  0
    1.4878   -7.4227   32.0328 H   0  0  0  0  0  0  0  0  0  0  0  0
   -1.9253   -4.2935   33.0991 H   0  0  0  0  0  0  0  0  0  0  0  0
   -0.7596   -4.0758   34.3850 H   0  0  0  0  0  0  0  0  0  0  0  0
   -0.3693   -6.4357   34.7755 H   0  0  0  0  0  0  0  0  0  0  0  0
   -2.0155   -6.2302   35.0156 H   0  0  0  0  0  0  0  0  0  0  0  0
   -0.9036   -8.2281   33.6547 H   0  0  0  0  0  0  0  0  0  0  0  0
   -2.5108   -7.7611   33.2616 H   0  0  0  0  0  0  0  0  0  0  0  0
   -0.6566   -8.0697   31.3638 H   0  0  0  0  0  0  0  0  0  0  0  0
   -1.8728   -6.8496   31.1943 H   0  0  0  0  0  0  0  0  0  0  0  0
  1  2  1  0
  2  3  1  0
  3  4  2  0
  3  5  1  0
  5  6  1  0
  6  7  1  0
  7  8  1  0
  8  9  2  0
  9 10  1  0
 10 11  1  0
 11 12  1  0
 12 13  1  0
 13 14  1  0
 14 15  2  0
 15 16  1  0
 16 17  2  0
  9 18  1  0
 18 19  1  0
 18 20  1  0
 20 21  2  0
 21 22  1  0
 22 23  1  0
 23 24  2  0
 24 25  1  0
 25 26  1  0
 26 27  1  0
 27 28  1  0
 21  7  1  0
 28 23  1  0
 17 13  1  0
 24 20  1  0
  1 29  1  0
  1 30  1  0
  1 31  1  0
  5 32  1  0
  5 33  1  0
  6 34  1  0
  7 35  1  0
 10 36  1  0
 11 37  1  0
 11 38  1  0
 12 39  1  0
 12 40  1  0
 14 41  1  0
 17 42  1  0
 19 43  1  0
 19 44  1  0
 19 45  1  0
 22 46  1  0
 25 47  1  0
 25 48  1  0
 26 49  1  0
 26 50  1  0
 27 51  1  0
 27 52  1  0
 28 53  1  0
 28 54  1  0
M  END
>  <Energy>  (811) 
-32.309216288951141

>  <compound_id>  (811) 
3745

>  <target_id>  (811) 
1

>  <reference_id>  (811) 
158

>  <inspiration_ids>  (811) 
[129, 158]

>  <energy_score>  (811) 
23.1176817020027

>  <distance_score>  (811) 
2.381228226654181

>  <path>  (811) 
/opt/xchem-fragalysis-2/maxwin/BulkDock/SCRATCH/505734/C3745-P158/C3745-P158.minimised.mol

>  <scratch_subdir>  (811) 
/opt/xchem-fragalysis-2/maxwin/BulkDock/SCRATCH/505734/C3745-P158

>  <fragmenstein_runtime>  (811) 
4.600947618484497

>  <fragmenstein_outcome>  (811) 
too moved

>  <fragmenstein_mode>  (811) 
expansion

>  <fragmenstein_error>  (811) 


$$$$
C3746-P129
     RDKit          3D

 57 59  0  0  0  0  0  0  0  0999 V2000
   -0.7441   -7.6920   35.7629 C   0  0  0  0  0  0  0  0  0  0  0  0
   -0.4363   -6.3600   35.0959 C   0  0  0  0  0  0  0  0  0  0  0  0
   -0.9882   -5.2309   35.9653 C   0  0  0  0  0  0  0  0  0  0  0  0
   -0.9467   -6.3480   33.6435 C   0  0  0  0  0  0  0  0  0  0  0  0
   -0.6401   -5.1397   32.8791 N   0  0  0  0  0  0  0  0  0  0  0  0
    0.3536   -5.5618   31.9111 C   0  0  0  0  0  0  0  0  0  0  0  0
    0.3255   -4.6542   30.6666 C   0  0  0  0  0  0  0  0  0  0  0  0
    1.3574   -3.5190   30.6925 C   0  0  0  0  0  0  0  0  0  0  0  0
    1.7950   -3.1244   32.0987 C   0  0  0  0  0  0  0  0  0  0  0  0
    2.4448   -4.2958   32.8694 C   0  0  0  0  0  0  0  0  0  0  0  0
    2.4128   -3.9932   34.4016 C   0  0  0  0  0  0  0  0  0  0  0  0
    3.4508   -4.7888   35.2055 N   0  0  0  0  0  0  0  0  0  0  0  0
    2.7398   -4.1244   36.3711 C   0  0  0  0  0  0  0  0  0  0  0  0
    3.5693   -6.2375   35.4462 C   0  0  0  0  0  0  0  0  0  0  0  0
    2.8484   -7.1170   35.1525 O   0  0  0  0  0  0  0  0  0  0  0  0
    4.7854   -6.2429   36.2334 N   0  0  0  0  0  0  0  0  0  0  0  0
    5.4267   -7.3032   36.9716 C   0  0  0  0  0  0  0  0  0  0  0  0
    4.4364   -8.2350   37.6937 C   0  0  0  0  0  0  0  0  0  0  0  0
    3.5003   -7.5655   38.5657 N   0  0  0  0  0  0  0  0  0  0  0  0
    2.1477   -7.5213   38.4264 C   0  0  0  0  0  0  0  0  0  0  0  0
    1.6362   -6.7734   39.3773 N   0  0  0  0  0  0  0  0  0  0  0  0
    2.6709   -6.3572   40.1822 N   0  0  0  0  0  0  0  0  0  0  0  0
    3.7813   -6.8577   39.6913 C   0  0  0  0  0  0  0  0  0  0  0  0
    1.7973   -5.6290   32.4534 C   0  0  0  0  0  0  0  0  0  0  0  0
   -0.0903   -6.9084   31.5704 N   0  0  0  0  0  0  0  0  0  0  0  0
   -0.4493   -7.4608   32.8868 O   0  0  0  0  0  0  0  0  0  0  0  0
   -1.7945   -7.9691   35.6415 H   0  0  0  0  0  0  0  0  0  0  0  0
   -0.1304   -8.4727   35.3221 H   0  0  0  0  0  0  0  0  0  0  0  0
   -0.5136   -7.6626   36.8302 H   0  0  0  0  0  0  0  0  0  0  0  0
    0.6466   -6.2637   35.0882 H   0  0  0  0  0  0  0  0  0  0  0  0
   -0.5067   -5.2349   36.9496 H   0  0  0  0  0  0  0  0  0  0  0  0
   -2.0544   -5.3585   36.1366 H   0  0  0  0  0  0  0  0  0  0  0  0
   -0.8269   -4.2430   35.5275 H   0  0  0  0  0  0  0  0  0  0  0  0
   -2.0231   -6.4694   33.6714 H   0  0  0  0  0  0  0  0  0  0  0  0
   -0.2969   -4.4086   33.4845 H   0  0  0  0  0  0  0  0  0  0  0  0
   -0.6761   -4.2240   30.5321 H   0  0  0  0  0  0  0  0  0  0  0  0
    0.5068   -5.2425   29.7573 H   0  0  0  0  0  0  0  0  0  0  0  0
    0.9509   -2.6465   30.1679 H   0  0  0  0  0  0  0  0  0  0  0  0
    2.2431   -3.8312   30.1241 H   0  0  0  0  0  0  0  0  0  0  0  0
    2.5117   -2.2961   32.0371 H   0  0  0  0  0  0  0  0  0  0  0  0
    0.9277   -2.7337   32.6450 H   0  0  0  0  0  0  0  0  0  0  0  0
    3.5030   -4.3452   32.5761 H   0  0  0  0  0  0  0  0  0  0  0  0
    1.3771   -4.1804   34.7001 H   0  0  0  0  0  0  0  0  0  0  0  0
    2.6642   -2.9220   34.4678 H   0  0  0  0  0  0  0  0  0  0  0  0
    2.7722   -3.0255   36.3898 H   0  0  0  0  0  0  0  0  0  0  0  0
    1.7528   -4.5539   36.5860 H   0  0  0  0  0  0  0  0  0  0  0  0
    3.3213   -4.3983   37.2637 H   0  0  0  0  0  0  0  0  0  0  0  0
    5.1957   -5.3165   36.2152 H   0  0  0  0  0  0  0  0  0  0  0  0
    6.0291   -7.8805   36.2633 H   0  0  0  0  0  0  0  0  0  0  0  0
    6.1037   -6.8292   37.6899 H   0  0  0  0  0  0  0  0  0  0  0  0
    3.8588   -8.8029   36.9577 H   0  0  0  0  0  0  0  0  0  0  0  0
    4.9851   -8.9597   38.3060 H   0  0  0  0  0  0  0  0  0  0  0  0
    1.6017   -8.0235   37.6404 H   0  0  0  0  0  0  0  0  0  0  0  0
    4.7729   -6.7243   40.0987 H   0  0  0  0  0  0  0  0  0  0  0  0
    1.8962   -6.3762   33.2349 H   0  0  0  0  0  0  0  0  0  0  0  0
    2.3980   -6.0078   31.6229 H   0  0  0  0  0  0  0  0  0  0  0  0
   -1.0086   -6.8463   31.1365 H   0  0  0  0  0  0  0  0  0  0  0  0
  1  2  1  0
  2  3  1  0
  2  4  1  0
  4  5  1  0
  5  6  1  0
  6  7  1  0
  7  8  1  0
  8  9  1  0
  9 10  1  0
 10 11  1  0
 11 12  1  0
 12 13  1  0
 12 14  1  0
 14 15  2  0
 14 16  1  0
 16 17  1  0
 17 18  1  0
 18 19  1  0
 19 20  1  0
 20 21  2  0
 21 22  1  0
 22 23  2  0
 10 24  1  0
  6 25  1  0
 25 26  1  0
 26  4  1  0
 24  6  1  0
 23 19  1  0
  1 27  1  0
  1 28  1  0
  1 29  1  0
  2 30  1  0
  3 31  1  0
  3 32  1  0
  3 33  1  0
  4 34  1  0
  5 35  1  0
  7 36  1  0
  7 37  1  0
  8 38  1  0
  8 39  1  0
  9 40  1  0
  9 41  1  0
 10 42  1  0
 11 43  1  0
 11 44  1  0
 13 45  1  0
 13 46  1  0
 13 47  1  0
 16 48  1  0
 17 49  1  0
 17 50  1  0
 18 51  1  0
 18 52  1  0
 20 53  1  0
 23 54  1  0
 24 55  1  0
 24 56  1  0
 25 57  1  0
M  END
>  <Energy>  (812) 
-10.094120656380678

>  <compound_id>  (812) 
3746

>  <target_id>  (812) 
1

>  <reference_id>  (812) 
129

>  <inspiration_ids>  (812) 
[129, 159]

>  <energy_score>  (812) 
37.88723990516459

>  <distance_score>  (812) 
2.729634876424087

>  <path>  (812) 
/opt/xchem-fragalysis-2/maxwin/BulkDock/SCRATCH/505734/C3746-P129/C3746-P129.minimised.mol

>  <scratch_subdir>  (812) 
/opt/xchem-fragalysis-2/maxwin/BulkDock/SCRATCH/505734/C3746-P129

>  <fragmenstein_runtime>  (812) 
11.86087417602539

>  <fragmenstein_outcome>  (812) 
too moved

>  <fragmenstein_mode>  (812) 
expansion

>  <fragmenstein_error>  (812) 


$$$$
C3746-P159
     RDKit          3D

 57 59  0  0  0  0  0  0  0  0999 V2000
   -0.9208   -7.9523   35.6292 C   0  0  0  0  0  0  0  0  0  0  0  0
   -0.4878   -6.6427   34.9968 C   0  0  0  0  0  0  0  0  0  0  0  0
   -0.7819   -5.4905   35.9489 C   0  0  0  0  0  0  0  0  0  0  0  0
   -1.0925   -6.5113   33.5767 C   0  0  0  0  0  0  0  0  0  0  0  0
   -0.9595   -5.2187   32.9010 N   0  0  0  0  0  0  0  0  0  0  0  0
    0.1713   -5.3944   32.0149 C   0  0  0  0  0  0  0  0  0  0  0  0
    0.1656   -4.3822   30.8668 C   0  0  0  0  0  0  0  0  0  0  0  0
    0.4180   -2.9438   31.3316 C   0  0  0  0  0  0  0  0  0  0  0  0
    1.4473   -2.8103   32.4621 C   0  0  0  0  0  0  0  0  0  0  0  0
    2.3547   -4.0419   32.5639 C   0  0  0  0  0  0  0  0  0  0  0  0
    3.5949   -3.8390   33.5228 C   0  0  0  0  0  0  0  0  0  0  0  0
    3.8603   -4.4905   34.8797 N   0  0  0  0  0  0  0  0  0  0  0  0
    2.7972   -3.5200   35.3135 C   0  0  0  0  0  0  0  0  0  0  0  0
    3.5425   -5.8459   35.3705 C   0  0  0  0  0  0  0  0  0  0  0  0
    2.9327   -6.7124   34.8638 O   0  0  0  0  0  0  0  0  0  0  0  0
    4.2192   -5.7971   36.6540 N   0  0  0  0  0  0  0  0  0  0  0  0
    4.4304   -6.8247   37.6541 C   0  0  0  0  0  0  0  0  0  0  0  0
    3.2107   -7.7144   37.9464 C   0  0  0  0  0  0  0  0  0  0  0  0
    2.1151   -7.1087   38.6662 N   0  0  0  0  0  0  0  0  0  0  0  0
    1.9059   -5.8002   38.9654 C   0  0  0  0  0  0  0  0  0  0  0  0
    0.7701   -5.6725   39.6109 N   0  0  0  0  0  0  0  0  0  0  0  0
    0.2238   -6.9278   39.7444 N   0  0  0  0  0  0  0  0  0  0  0  0
    1.0470   -7.7829   39.1827 C   0  0  0  0  0  0  0  0  0  0  0  0
    1.5077   -5.2893   32.7996 C   0  0  0  0  0  0  0  0  0  0  0  0
   -0.0880   -6.7414   31.5064 N   0  0  0  0  0  0  0  0  0  0  0  0
   -0.4833   -7.4843   32.7122 O   0  0  0  0  0  0  0  0  0  0  0  0
   -0.4112   -8.7639   35.1323 H   0  0  0  0  0  0  0  0  0  0  0  0
   -0.6395   -8.0010   36.6825 H   0  0  0  0  0  0  0  0  0  0  0  0
   -1.9885   -8.1350   35.5149 H   0  0  0  0  0  0  0  0  0  0  0  0
    0.5927   -6.7439   34.9271 H   0  0  0  0  0  0  0  0  0  0  0  0
   -0.2863   -5.6516   36.9105 H   0  0  0  0  0  0  0  0  0  0  0  0
   -0.4244   -4.5314   35.5681 H   0  0  0  0  0  0  0  0  0  0  0  0
   -1.8452   -5.4076   36.1475 H   0  0  0  0  0  0  0  0  0  0  0  0
   -2.1421   -6.7884   33.6293 H   0  0  0  0  0  0  0  0  0  0  0  0
   -0.8480   -4.4605   33.5626 H   0  0  0  0  0  0  0  0  0  0  0  0
   -0.7772   -4.4027   30.3118 H   0  0  0  0  0  0  0  0  0  0  0  0
    0.9409   -4.6571   30.1377 H   0  0  0  0  0  0  0  0  0  0  0  0
   -0.5251   -2.4889   31.6593 H   0  0  0  0  0  0  0  0  0  0  0  0
    0.7494   -2.3549   30.4673 H   0  0  0  0  0  0  0  0  0  0  0  0
    2.0438   -1.9052   32.2970 H   0  0  0  0  0  0  0  0  0  0  0  0
    0.9087   -2.6530   33.4033 H   0  0  0  0  0  0  0  0  0  0  0  0
    2.8025   -4.1471   31.5635 H   0  0  0  0  0  0  0  0  0  0  0  0
    4.3799   -4.3711   32.9578 H   0  0  0  0  0  0  0  0  0  0  0  0
    3.9880   -2.8082   33.4783 H   0  0  0  0  0  0  0  0  0  0  0  0
    1.7753   -3.8029   35.0609 H   0  0  0  0  0  0  0  0  0  0  0  0
    2.7862   -3.5914   36.4120 H   0  0  0  0  0  0  0  0  0  0  0  0
    3.0228   -2.4550   35.1536 H   0  0  0  0  0  0  0  0  0  0  0  0
    4.7167   -4.9175   36.7331 H   0  0  0  0  0  0  0  0  0  0  0  0
    4.7874   -6.3308   38.5638 H   0  0  0  0  0  0  0  0  0  0  0  0
    5.2413   -7.4543   37.2723 H   0  0  0  0  0  0  0  0  0  0  0  0
    2.7921   -8.1247   37.0215 H   0  0  0  0  0  0  0  0  0  0  0  0
    3.5442   -8.5594   38.5615 H   0  0  0  0  0  0  0  0  0  0  0  0
    2.5708   -4.9903   38.7065 H   0  0  0  0  0  0  0  0  0  0  0  0
    0.9110   -8.8552   39.1219 H   0  0  0  0  0  0  0  0  0  0  0  0
    1.2854   -5.2971   33.8560 H   0  0  0  0  0  0  0  0  0  0  0  0
    2.1090   -6.1728   32.6217 H   0  0  0  0  0  0  0  0  0  0  0  0
    0.7872   -7.2012   31.2845 H   0  0  0  0  0  0  0  0  0  0  0  0
  1  2  1  0
  2  3  1  0
  2  4  1  0
  4  5  1  0
  5  6  1  0
  6  7  1  0
  7  8  1  0
  8  9  1  0
  9 10  1  0
 10 11  1  0
 11 12  1  0
 12 13  1  0
 12 14  1  0
 14 15  2  0
 14 16  1  0
 16 17  1  0
 17 18  1  0
 18 19  1  0
 19 20  1  0
 20 21  2  0
 21 22  1  0
 22 23  2  0
 10 24  1  0
  6 25  1  0
 25 26  1  0
 26  4  1  0
 24  6  1  0
 23 19  1  0
  1 27  1  0
  1 28  1  0
  1 29  1  0
  2 30  1  0
  3 31  1  0
  3 32  1  0
  3 33  1  0
  4 34  1  0
  5 35  1  0
  7 36  1  0
  7 37  1  0
  8 38  1  0
  8 39  1  0
  9 40  1  0
  9 41  1  0
 10 42  1  0
 11 43  1  0
 11 44  1  0
 13 45  1  0
 13 46  1  0
 13 47  1  0
 16 48  1  0
 17 49  1  0
 17 50  1  0
 18 51  1  0
 18 52  1  0
 20 53  1  0
 23 54  1  0
 24 55  1  0
 24 56  1  0
 25 57  1  0
M  END
>  <Energy>  (813) 
9.9472822727449106

>  <compound_id>  (813) 
3746

>  <target_id>  (813) 
1

>  <reference_id>  (813) 
159

>  <inspiration_ids>  (813) 
[129, 159]

>  <energy_score>  (813) 
57.92864283429242

>  <distance_score>  (813) 
2.5325382580486253

>  <path>  (813) 
/opt/xchem-fragalysis-2/maxwin/BulkDock/SCRATCH/505734/C3746-P159/C3746-P159.minimised.mol

>  <scratch_subdir>  (813) 
/opt/xchem-fragalysis-2/maxwin/BulkDock/SCRATCH/505734/C3746-P159

>  <fragmenstein_runtime>  (813) 
8.637774229049683

>  <fragmenstein_outcome>  (813) 
too moved

>  <fragmenstein_mode>  (813) 
expansion

>  <fragmenstein_error>  (813) 


$$$$
C3747-P129
     RDKit          3D

 54 56  0  0  0  0  0  0  0  0999 V2000
    6.5360   -4.5758   33.6435 C   0  0  0  0  0  0  0  0  0  0  0  0
    5.2717   -3.8960   33.4933 N   0  0  0  0  0  0  0  0  0  0  0  0
    5.1068   -2.5285   33.9571 C   0  0  0  0  0  0  0  0  0  0  0  0
    4.1045   -2.4702   35.0760 C   0  0  0  0  0  0  0  0  0  0  0  0
    4.4769   -2.9088   36.3522 C   0  0  0  0  0  0  0  0  0  0  0  0
    3.5199   -3.0567   37.3508 C   0  0  0  0  0  0  0  0  0  0  0  0
    2.1885   -2.7389   37.0919 C   0  0  0  0  0  0  0  0  0  0  0  0
    1.8151   -2.2566   35.8385 C   0  0  0  0  0  0  0  0  0  0  0  0
    2.7672   -2.1347   34.8266 C   0  0  0  0  0  0  0  0  0  0  0  0
    4.1875   -4.5380   32.9011 C   0  0  0  0  0  0  0  0  0  0  0  0
    3.9746   -4.5000   31.7551 O   0  0  0  0  0  0  0  0  0  0  0  0
    3.4493   -5.2967   34.0366 N   0  0  0  0  0  0  0  0  0  0  0  0
    2.2350   -6.0910   34.0044 C   0  0  0  0  0  0  0  0  0  0  0  0
    0.9679   -5.2099   33.9636 C   0  0  0  0  0  0  0  0  0  0  0  0
   -0.2211   -5.6524   33.2584 N   0  0  0  0  0  0  0  0  0  0  0  0
   -0.9596   -6.7934   33.7195 C   0  0  0  0  0  0  0  0  0  0  0  0
   -0.6005   -7.5032   35.4490 Br  0  0  0  0  0  0  0  0  0  0  0  0
   -0.8294   -7.7617   32.6567 N   0  0  0  0  0  0  0  0  0  0  0  0
   -0.9570   -6.9279   31.4554 N   0  0  0  0  0  0  0  0  0  0  0  0
   -0.2481   -5.6585   31.7943 C   0  0  0  0  0  0  0  0  0  0  0  0
    1.0846   -5.7250   31.0911 C   0  0  0  0  0  0  0  0  0  0  0  0
    1.1161   -5.1337   29.7369 C   0  0  0  0  0  0  0  0  0  0  0  0
    1.8847   -5.5588   28.8767 O   0  0  0  0  0  0  0  0  0  0  0  0
    0.3661   -4.0340   29.5446 O   0  0  0  0  0  0  0  0  0  0  0  0
   -0.3618   -3.5302   30.6626 C   0  0  0  0  0  0  0  0  0  0  0  0
    0.5217   -2.6441   31.5495 C   0  0  0  0  0  0  0  0  0  0  0  0
   -1.4359   -2.6067   30.0851 C   0  0  0  0  0  0  0  0  0  0  0  0
   -1.0480   -4.5660   31.3701 O   0  0  0  0  0  0  0  0  0  0  0  0
    6.7922   -4.6244   34.7051 H   0  0  0  0  0  0  0  0  0  0  0  0
    7.3047   -4.0172   33.1026 H   0  0  0  0  0  0  0  0  0  0  0  0
    6.4741   -5.5903   33.2390 H   0  0  0  0  0  0  0  0  0  0  0  0
    6.0728   -2.1242   34.2807 H   0  0  0  0  0  0  0  0  0  0  0  0
    4.7647   -1.9213   33.1105 H   0  0  0  0  0  0  0  0  0  0  0  0
    5.5090   -3.1805   36.5622 H   0  0  0  0  0  0  0  0  0  0  0  0
    3.8083   -3.4172   38.3352 H   0  0  0  0  0  0  0  0  0  0  0  0
    1.4407   -2.8501   37.8738 H   0  0  0  0  0  0  0  0  0  0  0  0
    0.7762   -2.0014   35.6422 H   0  0  0  0  0  0  0  0  0  0  0  0
    2.4573   -1.8012   33.8391 H   0  0  0  0  0  0  0  0  0  0  0  0
    3.8504   -5.0418   34.9303 H   0  0  0  0  0  0  0  0  0  0  0  0
    2.2985   -6.7299   33.1293 H   0  0  0  0  0  0  0  0  0  0  0  0
    2.2454   -6.7334   34.8889 H   0  0  0  0  0  0  0  0  0  0  0  0
    0.6979   -4.9667   34.9996 H   0  0  0  0  0  0  0  0  0  0  0  0
    1.2381   -4.2307   33.5672 H   0  0  0  0  0  0  0  0  0  0  0  0
   -1.9999   -6.4943   33.8086 H   0  0  0  0  0  0  0  0  0  0  0  0
   -1.5669   -8.4669   32.7533 H   0  0  0  0  0  0  0  0  0  0  0  0
   -1.9300   -6.6409   31.3628 H   0  0  0  0  0  0  0  0  0  0  0  0
    1.4195   -6.7525   31.0382 H   0  0  0  0  0  0  0  0  0  0  0  0
    1.8435   -5.1722   31.6232 H   0  0  0  0  0  0  0  0  0  0  0  0
    0.7867   -1.7113   31.0375 H   0  0  0  0  0  0  0  0  0  0  0  0
    0.0194   -2.3977   32.4903 H   0  0  0  0  0  0  0  0  0  0  0  0
    1.4817   -3.1052   31.7807 H   0  0  0  0  0  0  0  0  0  0  0  0
   -0.9988   -1.7345   29.5856 H   0  0  0  0  0  0  0  0  0  0  0  0
   -2.0106   -3.1253   29.3197 H   0  0  0  0  0  0  0  0  0  0  0  0
   -2.1314   -2.2669   30.8596 H   0  0  0  0  0  0  0  0  0  0  0  0
  1  2  1  0
  2  3  1  0
  3  4  1  0
  4  5  2  0
  5  6  1  0
  6  7  2  0
  7  8  1  0
  8  9  2  0
  2 10  1  0
 10 11  2  0
 10 12  1  0
 12 13  1  0
 13 14  1  0
 14 15  1  0
 15 16  1  0
 16 17  1  0
 16 18  1  0
 18 19  1  0
 19 20  1  0
 20 21  1  0
 21 22  1  0
 22 23  2  0
 22 24  1  0
 24 25  1  0
 25 26  1  0
 25 27  1  0
 25 28  1  0
  9  4  1  0
 20 15  1  0
 28 20  1  0
  1 29  1  0
  1 30  1  0
  1 31  1  0
  3 32  1  0
  3 33  1  0
  5 34  1  0
  6 35  1  0
  7 36  1  0
  8 37  1  0
  9 38  1  0
 12 39  1  0
 13 40  1  0
 13 41  1  0
 14 42  1  0
 14 43  1  0
 16 44  1  0
 18 45  1  0
 19 46  1  0
 21 47  1  0
 21 48  1  0
 26 49  1  0
 26 50  1  0
 26 51  1  0
 27 52  1  0
 27 53  1  0
 27 54  1  0
M  END
>  <Energy>  (814) 
-92.056761735852149

>  <compound_id>  (814) 
3747

>  <target_id>  (814) 
1

>  <reference_id>  (814) 
129

>  <inspiration_ids>  (814) 
[129, 163]

>  <energy_score>  (814) 
-49.207975354600904

>  <distance_score>  (814) 
2.8057481559648854

>  <path>  (814) 
/opt/xchem-fragalysis-2/maxwin/BulkDock/SCRATCH/505734/C3747-P129/C3747-P129.minimised.mol

>  <scratch_subdir>  (814) 
/opt/xchem-fragalysis-2/maxwin/BulkDock/SCRATCH/505734/C3747-P129

>  <fragmenstein_runtime>  (814) 
3.6357245445251465

>  <fragmenstein_outcome>  (814) 
too moved

>  <fragmenstein_mode>  (814) 
expansion

>  <fragmenstein_error>  (814) 


$$$$
C3747-P163
     RDKit          3D

 54 56  0  0  0  0  0  0  0  0999 V2000
    6.5629   -3.7269   33.4118 C   0  0  0  0  0  0  0  0  0  0  0  0
    5.2082   -3.2723   33.2067 N   0  0  0  0  0  0  0  0  0  0  0  0
    4.7687   -1.9863   33.7166 C   0  0  0  0  0  0  0  0  0  0  0  0
    3.8491   -2.1958   34.8922 C   0  0  0  0  0  0  0  0  0  0  0  0
    4.3776   -2.6099   36.1220 C   0  0  0  0  0  0  0  0  0  0  0  0
    3.5320   -3.0041   37.1556 C   0  0  0  0  0  0  0  0  0  0  0  0
    2.1503   -2.9564   36.9819 C   0  0  0  0  0  0  0  0  0  0  0  0
    1.6130   -2.5058   35.7771 C   0  0  0  0  0  0  0  0  0  0  0  0
    2.4584   -2.1421   34.7285 C   0  0  0  0  0  0  0  0  0  0  0  0
    4.2997   -4.0697   32.5110 C   0  0  0  0  0  0  0  0  0  0  0  0
    4.1432   -4.0212   31.3589 O   0  0  0  0  0  0  0  0  0  0  0  0
    3.6324   -4.9712   33.5760 N   0  0  0  0  0  0  0  0  0  0  0  0
    2.5721   -5.9275   33.4531 C   0  0  0  0  0  0  0  0  0  0  0  0
    1.1567   -5.3599   33.5643 C   0  0  0  0  0  0  0  0  0  0  0  0
    0.2607   -6.3393   32.9952 N   0  0  0  0  0  0  0  0  0  0  0  0
   -0.8090   -6.8275   33.8149 C   0  0  0  0  0  0  0  0  0  0  0  0
   -0.3293   -7.5476   35.5130 Br  0  0  0  0  0  0  0  0  0  0  0  0
   -1.3015   -7.8556   32.9352 N   0  0  0  0  0  0  0  0  0  0  0  0
   -1.4239   -7.1662   31.6668 N   0  0  0  0  0  0  0  0  0  0  0  0
   -0.3791   -6.0916   31.7086 C   0  0  0  0  0  0  0  0  0  0  0  0
    0.3998   -6.3616   30.4581 C   0  0  0  0  0  0  0  0  0  0  0  0
    1.3631   -5.2731   30.1833 C   0  0  0  0  0  0  0  0  0  0  0  0
    2.3465   -5.4626   29.4744 O   0  0  0  0  0  0  0  0  0  0  0  0
    1.0564   -4.0707   30.7141 O   0  0  0  0  0  0  0  0  0  0  0  0
   -0.3278   -3.7994   30.9521 C   0  0  0  0  0  0  0  0  0  0  0  0
   -0.4324   -2.5418   31.8268 C   0  0  0  0  0  0  0  0  0  0  0  0
   -0.9720   -3.4419   29.6101 C   0  0  0  0  0  0  0  0  0  0  0  0
   -1.0510   -4.8372   31.6370 O   0  0  0  0  0  0  0  0  0  0  0  0
    7.2501   -3.0082   32.9570 H   0  0  0  0  0  0  0  0  0  0  0  0
    6.7099   -4.7080   32.9504 H   0  0  0  0  0  0  0  0  0  0  0  0
    6.7623   -3.8001   34.4837 H   0  0  0  0  0  0  0  0  0  0  0  0
    5.6353   -1.3793   34.0019 H   0  0  0  0  0  0  0  0  0  0  0  0
    4.2418   -1.4565   32.9140 H   0  0  0  0  0  0  0  0  0  0  0  0
    5.4538   -2.6674   36.2677 H   0  0  0  0  0  0  0  0  0  0  0  0
    3.9477   -3.3433   38.1012 H   0  0  0  0  0  0  0  0  0  0  0  0
    1.4899   -3.2556   37.7923 H   0  0  0  0  0  0  0  0  0  0  0  0
    0.5344   -2.4605   35.6468 H   0  0  0  0  0  0  0  0  0  0  0  0
    2.0311   -1.8385   33.7755 H   0  0  0  0  0  0  0  0  0  0  0  0
    3.9427   -4.6923   34.4976 H   0  0  0  0  0  0  0  0  0  0  0  0
    2.7411   -6.7177   34.1909 H   0  0  0  0  0  0  0  0  0  0  0  0
    2.6744   -6.3427   32.4543 H   0  0  0  0  0  0  0  0  0  0  0  0
    0.9429   -5.1403   34.6155 H   0  0  0  0  0  0  0  0  0  0  0  0
    1.1214   -4.3963   33.0694 H   0  0  0  0  0  0  0  0  0  0  0  0
   -1.5527   -6.0577   34.0288 H   0  0  0  0  0  0  0  0  0  0  0  0
   -2.1296   -8.3277   33.2938 H   0  0  0  0  0  0  0  0  0  0  0  0
   -2.2938   -6.6402   31.6734 H   0  0  0  0  0  0  0  0  0  0  0  0
    0.9069   -7.3245   30.5014 H   0  0  0  0  0  0  0  0  0  0  0  0
   -0.2882   -6.3820   29.6167 H   0  0  0  0  0  0  0  0  0  0  0  0
   -0.0852   -2.7260   32.8459 H   0  0  0  0  0  0  0  0  0  0  0  0
    0.1688   -1.7206   31.4218 H   0  0  0  0  0  0  0  0  0  0  0  0
   -1.4736   -2.2120   31.9209 H   0  0  0  0  0  0  0  0  0  0  0  0
   -0.4282   -2.6291   29.1150 H   0  0  0  0  0  0  0  0  0  0  0  0
   -0.9523   -4.2866   28.9206 H   0  0  0  0  0  0  0  0  0  0  0  0
   -2.0137   -3.1371   29.7363 H   0  0  0  0  0  0  0  0  0  0  0  0
  1  2  1  0
  2  3  1  0
  3  4  1  0
  4  5  2  0
  5  6  1  0
  6  7  2  0
  7  8  1  0
  8  9  2  0
  2 10  1  0
 10 11  2  0
 10 12  1  0
 12 13  1  0
 13 14  1  0
 14 15  1  0
 15 16  1  0
 16 17  1  0
 16 18  1  0
 18 19  1  0
 19 20  1  0
 20 21  1  0
 21 22  1  0
 22 23  2  0
 22 24  1  0
 24 25  1  0
 25 26  1  0
 25 27  1  0
 25 28  1  0
  9  4  1  0
 20 15  1  0
 28 20  1  0
  1 29  1  0
  1 30  1  0
  1 31  1  0
  3 32  1  0
  3 33  1  0
  5 34  1  0
  6 35  1  0
  7 36  1  0
  8 37  1  0
  9 38  1  0
 12 39  1  0
 13 40  1  0
 13 41  1  0
 14 42  1  0
 14 43  1  0
 16 44  1  0
 18 45  1  0
 19 46  1  0
 21 47  1  0
 21 48  1  0
 26 49  1  0
 26 50  1  0
 26 51  1  0
 27 52  1  0
 27 53  1  0
 27 54  1  0
M  END
>  <Energy>  (815) 
-91.149168580401977

>  <compound_id>  (815) 
3747

>  <target_id>  (815) 
1

>  <reference_id>  (815) 
163

>  <inspiration_ids>  (815) 
[129, 163]

>  <energy_score>  (815) 
-48.30038219914857

>  <distance_score>  (815) 
2.5212685489912063

>  <path>  (815) 
/opt/xchem-fragalysis-2/maxwin/BulkDock/SCRATCH/505734/C3747-P163/C3747-P163.minimised.mol

>  <scratch_subdir>  (815) 
/opt/xchem-fragalysis-2/maxwin/BulkDock/SCRATCH/505734/C3747-P163

>  <fragmenstein_runtime>  (815) 
4.164037227630615

>  <fragmenstein_outcome>  (815) 
too moved

>  <fragmenstein_mode>  (815) 
expansion

>  <fragmenstein_error>  (815) 


$$$$
C3749-P129
     RDKit          3D

 69 72  0  0  0  0  0  0  0  0999 V2000
   -1.3973  -10.3080   31.2694 C   0  0  0  0  0  0  0  0  0  0  0  0
   -1.1266   -9.9289   30.0013 N   0  0  0  0  0  0  0  0  0  0  0  0
   -2.5201  -11.0469   29.6472 C   0  0  0  0  0  0  0  0  0  0  0  0
   -3.5235  -10.8673   28.4377 C   0  0  0  0  0  0  0  0  0  0  0  0
   -4.2965   -8.6552   28.0310 C   0  0  0  0  0  0  0  0  0  0  0  0
   -3.2380   -7.9288   26.7584 C   0  0  0  0  0  0  0  0  0  0  0  0
   -2.5415   -9.3181   25.8323 C   0  0  0  0  0  0  0  0  0  0  0  0
   -2.4533  -11.1536   26.3948 C   0  0  0  0  0  0  0  0  0  0  0  0
   -2.8864  -11.8846   27.5328 C   0  0  0  0  0  0  0  0  0  0  0  0
   -1.0084   -8.5642   29.9458 C   0  0  0  0  0  0  0  0  0  0  0  0
   -1.8168   -7.6641   29.7304 N   0  0  0  0  0  0  0  0  0  0  0  0
   -1.4110   -6.9013   31.1847 C   0  0  0  0  0  0  0  0  0  0  0  0
   -0.7004   -5.5276   31.1840 C   0  0  0  0  0  0  0  0  0  0  0  0
    0.4979   -5.2726   32.1941 C   0  0  0  0  0  0  0  0  0  0  0  0
    1.6599   -5.0713   31.3396 O   0  0  0  0  0  0  0  0  0  0  0  0
    0.3624   -3.9593   33.0049 C   0  0  0  0  0  0  0  0  0  0  0  0
   -0.3876   -4.1160   34.3344 C   0  0  0  0  0  0  0  0  0  0  0  0
    0.1630   -5.2176   35.1285 N   0  0  0  0  0  0  0  0  0  0  0  0
   -0.4010   -5.3130   36.4813 C   0  0  0  0  0  0  0  0  0  0  0  0
    0.6173   -5.9956   37.3702 C   0  0  0  0  0  0  0  0  0  0  0  0
    1.7455   -5.3256   37.9556 C   0  0  0  0  0  0  0  0  0  0  0  0
    2.5442   -6.1644   38.6997 C   0  0  0  0  0  0  0  0  0  0  0  0
    1.9544   -7.7644   38.7123 S   0  0  0  0  0  0  0  0  0  0  0  0
    0.6267   -7.3354   37.7221 C   0  0  0  0  0  0  0  0  0  0  0  0
   -0.0097   -6.4698   34.4063 C   0  0  0  0  0  0  0  0  0  0  0  0
    0.8765   -6.3956   33.1841 C   0  0  0  0  0  0  0  0  0  0  0  0
    0.2205   -8.5761   30.1043 N   0  0  0  0  0  0  0  0  0  0  0  0
    1.1085   -7.6564   30.0063 C   0  0  0  0  0  0  0  0  0  0  0  0
    1.8228   -9.3611   29.3650 C   0  0  0  0  0  0  0  0  0  0  0  0
    2.4902  -11.1584   29.9312 N   0  0  0  0  0  0  0  0  0  0  0  0
    3.0239  -12.3191   29.5318 C   0  0  0  0  0  0  0  0  0  0  0  0
    2.7515  -13.3497   30.3674 N   0  0  0  0  0  0  0  0  0  0  0  0
    2.5722  -13.0236   31.5792 N   0  0  0  0  0  0  0  0  0  0  0  0
    2.8191  -11.8014   31.4414 C   0  0  0  0  0  0  0  0  0  0  0  0
   -0.7445   -9.7302   31.9214 H   0  0  0  0  0  0  0  0  0  0  0  0
   -2.2653   -9.7706   31.6352 H   0  0  0  0  0  0  0  0  0  0  0  0
   -1.0989  -11.3044   31.1536 H   0  0  0  0  0  0  0  0  0  0  0  0
   -3.4588  -11.1886   30.1621 H   0  0  0  0  0  0  0  0  0  0  0  0
   -2.0961  -12.0305   29.5458 H   0  0  0  0  0  0  0  0  0  0  0  0
   -4.9356   -8.0589   28.7158 H   0  0  0  0  0  0  0  0  0  0  0  0
   -2.6318   -7.0595   26.9306 H   0  0  0  0  0  0  0  0  0  0  0  0
   -2.4772   -9.2920   24.7502 H   0  0  0  0  0  0  0  0  0  0  0  0
   -2.5363  -11.9094   25.5543 H   0  0  0  0  0  0  0  0  0  0  0  0
   -2.7679  -12.9251   27.6400 H   0  0  0  0  0  0  0  0  0  0  0  0
   -2.3357   -6.8921   31.7302 H   0  0  0  0  0  0  0  0  0  0  0  0
   -0.8868   -7.5903   31.8521 H   0  0  0  0  0  0  0  0  0  0  0  0
   -1.4549   -4.7661   31.4058 H   0  0  0  0  0  0  0  0  0  0  0  0
   -0.3622   -5.3101   30.1632 H   0  0  0  0  0  0  0  0  0  0  0  0
    1.5590   -4.1948   30.9218 H   0  0  0  0  0  0  0  0  0  0  0  0
   -0.1127   -3.1798   32.3965 H   0  0  0  0  0  0  0  0  0  0  0  0
    1.3678   -3.5731   33.2282 H   0  0  0  0  0  0  0  0  0  0  0  0
   -0.3026   -3.1721   34.8857 H   0  0  0  0  0  0  0  0  0  0  0  0
   -1.4394   -4.2766   34.1199 H   0  0  0  0  0  0  0  0  0  0  0  0
   -0.5811   -4.3129   36.8965 H   0  0  0  0  0  0  0  0  0  0  0  0
   -1.3619   -5.8399   36.4914 H   0  0  0  0  0  0  0  0  0  0  0  0
    1.9609   -4.2726   37.8187 H   0  0  0  0  0  0  0  0  0  0  0  0
    3.4479   -5.9120   39.2367 H   0  0  0  0  0  0  0  0  0  0  0  0
   -0.0701   -8.1070   37.4232 H   0  0  0  0  0  0  0  0  0  0  0  0
    0.3240   -7.3304   34.9951 H   0  0  0  0  0  0  0  0  0  0  0  0
   -1.0579   -6.6537   34.1397 H   0  0  0  0  0  0  0  0  0  0  0  0
    1.9214   -6.2520   33.4994 H   0  0  0  0  0  0  0  0  0  0  0  0
    0.8727   -7.3887   32.7514 H   0  0  0  0  0  0  0  0  0  0  0  0
    0.4960   -9.5135   30.3505 H   0  0  0  0  0  0  0  0  0  0  0  0
    1.3569   -7.2644   30.9715 H   0  0  0  0  0  0  0  0  0  0  0  0
    1.2501   -6.9612   29.1867 H   0  0  0  0  0  0  0  0  0  0  0  0
    0.8328   -9.7901   28.8847 H   0  0  0  0  0  0  0  0  0  0  0  0
    2.0423   -9.0826   28.2968 H   0  0  0  0  0  0  0  0  0  0  0  0
    3.3373  -12.6844   28.5750 H   0  0  0  0  0  0  0  0  0  0  0  0
    3.3477  -11.2481   32.2101 H   0  0  0  0  0  0  0  0  0  0  0  0
  1  2  1  0
  2  3  1  0
  3  4  1  0
  4  5  2  0
  5  6  1  0
  6  7  2  0
  7  8  1  0
  8  9  2  0
  2 10  1  0
 10 11  2  3
 11 12  1  0
 12 13  1  0
 13 14  1  0
 14 15  1  0
 14 16  1  0
 16 17  1  0
 17 18  1  0
 18 19  1  0
 19 20  1  0
 20 21  1  0
 21 22  2  0
 22 23  1  0
 23 24  1  0
 18 25  1  0
 25 26  1  0
 10 27  1  0
 27 28  1  0
 28 29  1  0
 29 30  1  0
 30 31  1  0
 31 32  2  0
 32 33  1  0
 33 34  2  0
  9  4  1  0
 26 14  1  0
 34 30  1  0
 24 20  2  0
  1 35  1  0
  1 36  1  0
  1 37  1  0
  3 38  1  0
  3 39  1  0
  5 40  1  0
  6 41  1  0
  7 42  1  0
  8 43  1  0
  9 44  1  0
 12 45  1  0
 12 46  1  0
 13 47  1  0
 13 48  1  0
 15 49  1  0
 16 50  1  0
 16 51  1  0
 17 52  1  0
 17 53  1  0
 19 54  1  0
 19 55  1  0
 21 56  1  0
 22 57  1  0
 24 58  1  0
 25 59  1  0
 25 60  1  0
 26 61  1  0
 26 62  1  0
 27 63  1  0
 28 64  1  0
 28 65  1  0
 29 66  1  0
 29 67  1  0
 31 68  1  0
 34 69  1  0
M  END
>  <Energy>  (816) 
1343.5352634541271

>  <compound_id>  (816) 
3749

>  <target_id>  (816) 
1

>  <reference_id>  (816) 
129

>  <inspiration_ids>  (816) 
[129, 166]

>  <energy_score>  (816) 
1305.3833739022477

>  <distance_score>  (816) 
2.3833151979487526

>  <path>  (816) 
/opt/xchem-fragalysis-2/maxwin/BulkDock/SCRATCH/505734/C3749-P129/C3749-P129.minimised.mol

>  <scratch_subdir>  (816) 
/opt/xchem-fragalysis-2/maxwin/BulkDock/SCRATCH/505734/C3749-P129

>  <fragmenstein_runtime>  (816) 
39.35357308387756

>  <fragmenstein_outcome>  (816) 
too moved

>  <fragmenstein_mode>  (816) 
expansion

>  <fragmenstein_error>  (816) 


$$$$
C3749-P166
     RDKit          3D

 69 72  0  0  0  0  0  0  0  0999 V2000
   -1.0206   -7.8236   32.4686 C   0  0  0  0  0  0  0  0  0  0  0  0
   -1.0456   -7.7382   30.8416 N   0  0  0  0  0  0  0  0  0  0  0  0
   -2.1793   -7.2074   31.0749 C   0  0  0  0  0  0  0  0  0  0  0  0
   -1.8260   -7.8465   29.2343 C   0  0  0  0  0  0  0  0  0  0  0  0
   -2.3193   -7.3190   28.0193 C   0  0  0  0  0  0  0  0  0  0  0  0
   -2.4801   -8.1039   26.5074 C   0  0  0  0  0  0  0  0  0  0  0  0
   -2.0530   -9.9496   26.1138 C   0  0  0  0  0  0  0  0  0  0  0  0
   -1.5483  -10.8339   27.6545 C   0  0  0  0  0  0  0  0  0  0  0  0
   -1.2732   -9.5802   29.0096 C   0  0  0  0  0  0  0  0  0  0  0  0
    0.0512   -7.2305   30.3917 C   0  0  0  0  0  0  0  0  0  0  0  0
    0.3940   -6.0997   30.1438 N   0  0  0  0  0  0  0  0  0  0  0  0
   -0.0443   -4.7521   30.3632 C   0  0  0  0  0  0  0  0  0  0  0  0
    1.0868   -4.0313   31.1216 C   0  0  0  0  0  0  0  0  0  0  0  0
    0.7245   -3.5236   32.5423 C   0  0  0  0  0  0  0  0  0  0  0  0
   -0.1995   -2.4436   32.3583 O   0  0  0  0  0  0  0  0  0  0  0  0
    1.9710   -2.9993   33.2766 C   0  0  0  0  0  0  0  0  0  0  0  0
    2.8984   -4.1327   33.7351 C   0  0  0  0  0  0  0  0  0  0  0  0
    2.2507   -5.2080   34.5027 N   0  0  0  0  0  0  0  0  0  0  0  0
    2.0385   -4.8511   35.9156 C   0  0  0  0  0  0  0  0  0  0  0  0
    1.9257   -6.0989   36.7558 C   0  0  0  0  0  0  0  0  0  0  0  0
    2.9064   -7.1497   36.7946 C   0  0  0  0  0  0  0  0  0  0  0  0
    2.5775   -8.1561   37.6729 C   0  0  0  0  0  0  0  0  0  0  0  0
    1.1010   -7.8497   38.4700 S   0  0  0  0  0  0  0  0  0  0  0  0
    0.8897   -6.3759   37.6306 C   0  0  0  0  0  0  0  0  0  0  0  0
    1.0285   -5.6709   33.8440 C   0  0  0  0  0  0  0  0  0  0  0  0
    0.0636   -4.5520   33.4613 C   0  0  0  0  0  0  0  0  0  0  0  0
    0.5760   -8.3375   30.1966 N   0  0  0  0  0  0  0  0  0  0  0  0
    1.6076   -8.6705   29.5728 C   0  0  0  0  0  0  0  0  0  0  0  0
    0.7247   -9.7788   29.0337 C   0  0  0  0  0  0  0  0  0  0  0  0
    1.3683  -11.6508   29.3457 N   0  0  0  0  0  0  0  0  0  0  0  0
    1.8553  -13.0506   27.9019 C   0  0  0  0  0  0  0  0  0  0  0  0
    0.1877  -13.7232   27.4045 N   0  0  0  0  0  0  0  0  0  0  0  0
   -1.0870  -13.3274   29.0577 N   0  0  0  0  0  0  0  0  0  0  0  0
   -0.2776  -12.0063   30.1985 C   0  0  0  0  0  0  0  0  0  0  0  0
   -1.6030   -8.7023   32.7839 H   0  0  0  0  0  0  0  0  0  0  0  0
   -1.3512   -6.9348   33.0221 H   0  0  0  0  0  0  0  0  0  0  0  0
    0.0054   -8.0292   32.7784 H   0  0  0  0  0  0  0  0  0  0  0  0
   -2.9899   -7.8629   31.4030 H   0  0  0  0  0  0  0  0  0  0  0  0
   -2.0820   -6.1526   31.2252 H   0  0  0  0  0  0  0  0  0  0  0  0
   -2.1670   -6.2550   28.0218 H   0  0  0  0  0  0  0  0  0  0  0  0
   -2.3333   -7.3442   25.7430 H   0  0  0  0  0  0  0  0  0  0  0  0
   -1.0833   -9.6775   26.4956 H   0  0  0  0  0  0  0  0  0  0  0  0
   -2.2596  -11.6678   27.9092 H   0  0  0  0  0  0  0  0  0  0  0  0
   -1.3292  -10.0337   29.9941 H   0  0  0  0  0  0  0  0  0  0  0  0
   -0.1824   -4.2713   29.3881 H   0  0  0  0  0  0  0  0  0  0  0  0
   -0.9804   -4.6340   30.8969 H   0  0  0  0  0  0  0  0  0  0  0  0
    1.3690   -3.1557   30.5202 H   0  0  0  0  0  0  0  0  0  0  0  0
    1.9771   -4.6694   31.1563 H   0  0  0  0  0  0  0  0  0  0  0  0
   -0.3923   -2.0428   33.2241 H   0  0  0  0  0  0  0  0  0  0  0  0
    1.6645   -2.4062   34.1489 H   0  0  0  0  0  0  0  0  0  0  0  0
    2.5229   -2.3025   32.6333 H   0  0  0  0  0  0  0  0  0  0  0  0
    3.3699   -4.5889   32.8564 H   0  0  0  0  0  0  0  0  0  0  0  0
    3.7357   -3.7089   34.3037 H   0  0  0  0  0  0  0  0  0  0  0  0
    2.9085   -4.3022   36.3004 H   0  0  0  0  0  0  0  0  0  0  0  0
    1.1715   -4.1960   36.0557 H   0  0  0  0  0  0  0  0  0  0  0  0
    3.8144   -7.1510   36.2036 H   0  0  0  0  0  0  0  0  0  0  0  0
    3.1337   -9.0553   37.8971 H   0  0  0  0  0  0  0  0  0  0  0  0
    0.0133   -5.7747   37.8315 H   0  0  0  0  0  0  0  0  0  0  0  0
    1.3320   -6.2149   32.9437 H   0  0  0  0  0  0  0  0  0  0  0  0
    0.5091   -6.4041   34.4705 H   0  0  0  0  0  0  0  0  0  0  0  0
   -0.8429   -4.9463   33.0015 H   0  0  0  0  0  0  0  0  0  0  0  0
   -0.3065   -4.0531   34.3673 H   0  0  0  0  0  0  0  0  0  0  0  0
    0.0041   -9.0434   30.6325 H   0  0  0  0  0  0  0  0  0  0  0  0
    2.1193   -9.4095   29.9838 H   0  0  0  0  0  0  0  0  0  0  0  0
    1.8888   -7.8607   28.8765 H   0  0  0  0  0  0  0  0  0  0  0  0
    0.2455  -10.0011   28.1215 H   0  0  0  0  0  0  0  0  0  0  0  0
    1.2039   -9.2823   28.1196 H   0  0  0  0  0  0  0  0  0  0  0  0
    2.7363  -13.6401   28.0657 H   0  0  0  0  0  0  0  0  0  0  0  0
   -0.8204  -11.2828   30.7748 H   0  0  0  0  0  0  0  0  0  0  0  0
  1  2  1  0
  2  3  1  0
  3  4  1  0
  4  5  2  0
  5  6  1  0
  6  7  2  0
  7  8  1  0
  8  9  2  0
  2 10  1  0
 10 11  2  3
 11 12  1  0
 12 13  1  0
 13 14  1  0
 14 15  1  0
 14 16  1  0
 16 17  1  0
 17 18  1  0
 18 19  1  0
 19 20  1  0
 20 21  1  0
 21 22  2  0
 22 23  1  0
 23 24  1  0
 18 25  1  0
 25 26  1  0
 10 27  1  0
 27 28  1  0
 28 29  1  0
 29 30  1  0
 30 31  1  0
 31 32  2  0
 32 33  1  0
 33 34  2  0
  9  4  1  0
 26 14  1  0
 34 30  1  0
 24 20  2  0
  1 35  1  0
  1 36  1  0
  1 37  1  0
  3 38  1  0
  3 39  1  0
  5 40  1  0
  6 41  1  0
  7 42  1  0
  8 43  1  0
  9 44  1  0
 12 45  1  0
 12 46  1  0
 13 47  1  0
 13 48  1  0
 15 49  1  0
 16 50  1  0
 16 51  1  0
 17 52  1  0
 17 53  1  0
 19 54  1  0
 19 55  1  0
 21 56  1  0
 22 57  1  0
 24 58  1  0
 25 59  1  0
 25 60  1  0
 26 61  1  0
 26 62  1  0
 27 63  1  0
 28 64  1  0
 28 65  1  0
 29 66  1  0
 29 67  1  0
 31 68  1  0
 34 69  1  0
M  END
>  <Energy>  (817) 
1534.8012419651773

>  <compound_id>  (817) 
3749

>  <target_id>  (817) 
1

>  <reference_id>  (817) 
166

>  <inspiration_ids>  (817) 
[129, 166]

>  <energy_score>  (817) 
1496.6493524132902

>  <distance_score>  (817) 
3.0650236898075205

>  <path>  (817) 
/opt/xchem-fragalysis-2/maxwin/BulkDock/SCRATCH/505734/C3749-P166/C3749-P166.minimised.mol

>  <scratch_subdir>  (817) 
/opt/xchem-fragalysis-2/maxwin/BulkDock/SCRATCH/505734/C3749-P166

>  <fragmenstein_runtime>  (817) 
40.165053367614746

>  <fragmenstein_outcome>  (817) 
too moved

>  <fragmenstein_mode>  (817) 
expansion

>  <fragmenstein_error>  (817) 


$$$$
C3707-P129
     RDKit          3D

 59 62  0  0  0  0  0  0  0  0999 V2000
    2.1489   -7.0366   37.0327 C   0  0  0  0  0  0  0  0  0  0  0  0
    1.2623   -5.8377   37.2668 N   0  0  0  0  0  0  0  0  0  0  0  0
    1.5114   -6.2043   38.7093 C   0  0  0  0  0  0  0  0  0  0  0  0
    0.8401   -5.1270   39.5738 C   0  0  0  0  0  0  0  0  0  0  0  0
    1.6051   -4.1641   40.2471 C   0  0  0  0  0  0  0  0  0  0  0  0
    0.9888   -3.1717   41.0126 C   0  0  0  0  0  0  0  0  0  0  0  0
   -0.3992   -3.1337   41.1226 C   0  0  0  0  0  0  0  0  0  0  0  0
   -1.1713   -4.0878   40.4661 C   0  0  0  0  0  0  0  0  0  0  0  0
   -0.5556   -5.0768   39.6979 C   0  0  0  0  0  0  0  0  0  0  0  0
    0.0562   -5.9437   36.4596 C   0  0  0  0  0  0  0  0  0  0  0  0
   -0.9825   -6.4200   36.7129 O   0  0  0  0  0  0  0  0  0  0  0  0
    0.4884   -5.2048   35.2938 N   0  0  0  0  0  0  0  0  0  0  0  0
   -0.2432   -4.7517   34.1472 C   0  0  0  0  0  0  0  0  0  0  0  0
    0.3220   -5.2413   32.8485 C   0  0  0  0  0  0  0  0  0  0  0  0
    1.2109   -4.5077   32.1184 C   0  0  0  0  0  0  0  0  0  0  0  0
    1.8430   -3.2879   32.6463 C   0  0  0  0  0  0  0  0  0  0  0  0
    1.3969   -2.0188   32.2678 C   0  0  0  0  0  0  0  0  0  0  0  0
    2.0390   -0.8821   32.7592 C   0  0  0  0  0  0  0  0  0  0  0  0
    3.1135   -1.0113   33.6421 C   0  0  0  0  0  0  0  0  0  0  0  0
    3.5528   -2.2785   34.0269 C   0  0  0  0  0  0  0  0  0  0  0  0
    4.6151   -2.3867   34.9704 N   0  0  0  0  0  0  0  0  0  0  0  0
    4.3777   -3.3039   36.3675 S   0  0  0  0  0  0  0  0  0  0  0  0
    2.9161   -2.5597   37.0660 C   0  0  0  0  0  0  0  0  0  0  0  0
    5.4916   -2.9918   37.2371 O   0  0  0  0  0  0  0  0  0  0  0  0
    4.0836   -4.6735   36.0012 O   0  0  0  0  0  0  0  0  0  0  0  0
    2.9460   -3.4121   33.4951 C   0  0  0  0  0  0  0  0  0  0  0  0
    1.5780   -4.9576   30.7830 C   0  0  0  0  0  0  0  0  0  0  0  0
    1.0149   -6.0309   30.2195 C   0  0  0  0  0  0  0  0  0  0  0  0
    0.0632   -6.7874   30.9387 C   0  0  0  0  0  0  0  0  0  0  0  0
   -0.6499   -7.8311   30.5874 N   0  0  0  0  0  0  0  0  0  0  0  0
   -1.3423   -8.2410   31.6903 N   0  0  0  0  0  0  0  0  0  0  0  0
   -1.0517   -7.4448   32.6994 C   0  0  0  0  0  0  0  0  0  0  0  0
   -1.4702   -7.6261   33.9663 N   0  0  0  0  0  0  0  0  0  0  0  0
   -0.2149   -6.4180   32.2558 N   0  0  0  0  0  0  0  0  0  0  0  0
    1.7002   -7.9972   37.3291 H   0  0  0  0  0  0  0  0  0  0  0  0
    2.2335   -7.1353   35.9397 H   0  0  0  0  0  0  0  0  0  0  0  0
    3.1930   -6.9104   37.3532 H   0  0  0  0  0  0  0  0  0  0  0  0
    2.5693   -6.1879   39.0156 H   0  0  0  0  0  0  0  0  0  0  0  0
    1.0139   -7.1426   39.0052 H   0  0  0  0  0  0  0  0  0  0  0  0
    2.6906   -4.1802   40.1838 H   0  0  0  0  0  0  0  0  0  0  0  0
    1.5928   -2.4313   41.5303 H   0  0  0  0  0  0  0  0  0  0  0  0
   -0.8809   -2.3650   41.7202 H   0  0  0  0  0  0  0  0  0  0  0  0
   -2.2564   -4.0685   40.5431 H   0  0  0  0  0  0  0  0  0  0  0  0
   -1.1809   -5.8048   39.1864 H   0  0  0  0  0  0  0  0  0  0  0  0
    1.4784   -5.0120   35.3728 H   0  0  0  0  0  0  0  0  0  0  0  0
   -1.2860   -5.0446   34.2610 H   0  0  0  0  0  0  0  0  0  0  0  0
   -0.2536   -3.6579   34.2004 H   0  0  0  0  0  0  0  0  0  0  0  0
    0.5556   -1.9080   31.5860 H   0  0  0  0  0  0  0  0  0  0  0  0
    1.6946    0.1055   32.4601 H   0  0  0  0  0  0  0  0  0  0  0  0
    3.5886   -0.1135   34.0280 H   0  0  0  0  0  0  0  0  0  0  0  0
    5.1613   -1.5452   35.1568 H   0  0  0  0  0  0  0  0  0  0  0  0
    3.0769   -1.4841   37.1601 H   0  0  0  0  0  0  0  0  0  0  0  0
    2.7730   -2.9905   38.0546 H   0  0  0  0  0  0  0  0  0  0  0  0
    2.0520   -2.7781   36.4383 H   0  0  0  0  0  0  0  0  0  0  0  0
    3.3258   -4.4025   33.7318 H   0  0  0  0  0  0  0  0  0  0  0  0
    2.3289   -4.3907   30.2375 H   0  0  0  0  0  0  0  0  0  0  0  0
    1.3267   -6.3532   29.2379 H   0  0  0  0  0  0  0  0  0  0  0  0
   -1.0461   -7.1814   34.7747 H   0  0  0  0  0  0  0  0  0  0  0  0
   -1.7543   -8.5838   34.2122 H   0  0  0  0  0  0  0  0  0  0  0  0
  1  2  1  0
  2  3  1  0
  3  4  1  0
  4  5  2  0
  5  6  1  0
  6  7  2  0
  7  8  1  0
  8  9  2  0
  2 10  1  0
 10 11  2  0
 10 12  1  0
 12 13  1  0
 13 14  1  0
 14 15  2  0
 15 16  1  0
 16 17  2  0
 17 18  1  0
 18 19  2  0
 19 20  1  0
 20 21  1  0
 21 22  1  0
 22 23  1  0
 22 24  2  0
 22 25  2  0
 20 26  2  0
 15 27  1  0
 27 28  2  0
 28 29  1  0
 29 30  2  0
 30 31  1  0
 31 32  2  0
 32 33  1  0
 32 34  1  0
  9  4  1  0
 34 14  1  0
 26 16  1  0
 34 29  1  0
  1 35  1  0
  1 36  1  0
  1 37  1  0
  3 38  1  0
  3 39  1  0
  5 40  1  0
  6 41  1  0
  7 42  1  0
  8 43  1  0
  9 44  1  0
 12 45  1  0
 13 46  1  0
 13 47  1  0
 17 48  1  0
 18 49  1  0
 19 50  1  0
 21 51  1  0
 23 52  1  0
 23 53  1  0
 23 54  1  0
 26 55  1  0
 27 56  1  0
 28 57  1  0
 33 58  1  0
 33 59  1  0
M  END
>  <Energy>  (818) 
-14.693057882722464

>  <compound_id>  (818) 
3707

>  <target_id>  (818) 
1

>  <reference_id>  (818) 
129

>  <inspiration_ids>  (818) 
[129, 168]

>  <energy_score>  (818) 
-2.367688608365853

>  <distance_score>  (818) 
1.632499309946609

>  <path>  (818) 
/opt/xchem-fragalysis-2/maxwin/BulkDock/SCRATCH/505734/C3707-P129/C3707-P129.minimised.mol

>  <scratch_subdir>  (818) 
/opt/xchem-fragalysis-2/maxwin/BulkDock/SCRATCH/505734/C3707-P129

>  <fragmenstein_runtime>  (818) 
9.610913753509521

>  <fragmenstein_outcome>  (818) 
too moved

>  <fragmenstein_mode>  (818) 
expansion

>  <fragmenstein_error>  (818) 


$$$$
C3707-P168
     RDKit          3D

 59 62  0  0  0  0  0  0  0  0999 V2000
    0.5141   -5.0369   38.0975 C   0  0  0  0  0  0  0  0  0  0  0  0
   -0.2743   -4.5009   36.9199 N   0  0  0  0  0  0  0  0  0  0  0  0
   -1.1789   -4.0134   38.0204 C   0  0  0  0  0  0  0  0  0  0  0  0
   -0.8404   -2.6487   38.5948 C   0  0  0  0  0  0  0  0  0  0  0  0
   -0.3658   -1.6186   37.7708 C   0  0  0  0  0  0  0  0  0  0  0  0
   -0.0456   -0.3746   38.3123 C   0  0  0  0  0  0  0  0  0  0  0  0
   -0.2110   -0.1421   39.6766 C   0  0  0  0  0  0  0  0  0  0  0  0
   -0.7014   -1.1527   40.5012 C   0  0  0  0  0  0  0  0  0  0  0  0
   -1.0194   -2.4003   39.9634 C   0  0  0  0  0  0  0  0  0  0  0  0
   -0.4689   -5.5504   35.9321 C   0  0  0  0  0  0  0  0  0  0  0  0
   -1.3410   -6.3270   35.8125 O   0  0  0  0  0  0  0  0  0  0  0  0
    0.7436   -5.3739   35.1611 N   0  0  0  0  0  0  0  0  0  0  0  0
    1.2904   -6.1437   34.0888 C   0  0  0  0  0  0  0  0  0  0  0  0
    0.8443   -5.7149   32.7132 C   0  0  0  0  0  0  0  0  0  0  0  0
    1.3253   -4.6257   32.0433 C   0  0  0  0  0  0  0  0  0  0  0  0
    2.0372   -3.5180   32.7236 C   0  0  0  0  0  0  0  0  0  0  0  0
    1.4281   -2.2511   32.7304 C   0  0  0  0  0  0  0  0  0  0  0  0
    2.0270   -1.1689   33.3751 C   0  0  0  0  0  0  0  0  0  0  0  0
    3.2246   -1.3499   34.0590 C   0  0  0  0  0  0  0  0  0  0  0  0
    3.8282   -2.6066   34.0706 C   0  0  0  0  0  0  0  0  0  0  0  0
    4.9590   -2.8194   34.9080 N   0  0  0  0  0  0  0  0  0  0  0  0
    4.7445   -3.7604   36.2967 S   0  0  0  0  0  0  0  0  0  0  0  0
    3.4979   -2.8592   37.2008 C   0  0  0  0  0  0  0  0  0  0  0  0
    5.9810   -3.6556   37.0395 O   0  0  0  0  0  0  0  0  0  0  0  0
    4.1973   -5.0478   35.9240 O   0  0  0  0  0  0  0  0  0  0  0  0
    3.2655   -3.6735   33.3673 C   0  0  0  0  0  0  0  0  0  0  0  0
    1.0357   -4.5070   30.6046 C   0  0  0  0  0  0  0  0  0  0  0  0
    0.3311   -5.4254   29.9268 C   0  0  0  0  0  0  0  0  0  0  0  0
   -0.2225   -6.5195   30.6261 C   0  0  0  0  0  0  0  0  0  0  0  0
   -0.9554   -7.5310   30.2190 N   0  0  0  0  0  0  0  0  0  0  0  0
   -1.3371   -8.2356   31.3276 N   0  0  0  0  0  0  0  0  0  0  0  0
   -0.8396   -7.6384   32.3872 C   0  0  0  0  0  0  0  0  0  0  0  0
   -1.0701   -7.9594   33.6696 N   0  0  0  0  0  0  0  0  0  0  0  0
   -0.0152   -6.5900   31.9980 N   0  0  0  0  0  0  0  0  0  0  0  0
    0.0418   -5.9048   38.5848 H   0  0  0  0  0  0  0  0  0  0  0  0
    1.4251   -5.4755   37.6627 H   0  0  0  0  0  0  0  0  0  0  0  0
    0.9181   -4.2929   38.7959 H   0  0  0  0  0  0  0  0  0  0  0  0
   -1.5398   -4.7565   38.7529 H   0  0  0  0  0  0  0  0  0  0  0  0
   -2.1103   -3.8230   37.4653 H   0  0  0  0  0  0  0  0  0  0  0  0
   -0.2476   -1.7846   36.7017 H   0  0  0  0  0  0  0  0  0  0  0  0
    0.3201    0.4205   37.6678 H   0  0  0  0  0  0  0  0  0  0  0  0
    0.0311    0.8310   40.0964 H   0  0  0  0  0  0  0  0  0  0  0  0
   -0.8413   -0.9678   41.5634 H   0  0  0  0  0  0  0  0  0  0  0  0
   -1.4075   -3.1774   40.6195 H   0  0  0  0  0  0  0  0  0  0  0  0
    1.2291   -4.5530   35.4928 H   0  0  0  0  0  0  0  0  0  0  0  0
    2.3780   -6.0791   34.1685 H   0  0  0  0  0  0  0  0  0  0  0  0
    1.0948   -7.1982   34.2921 H   0  0  0  0  0  0  0  0  0  0  0  0
    0.4684   -2.0992   32.2368 H   0  0  0  0  0  0  0  0  0  0  0  0
    1.5416   -0.1957   33.3655 H   0  0  0  0  0  0  0  0  0  0  0  0
    3.6615   -0.5123   34.5953 H   0  0  0  0  0  0  0  0  0  0  0  0
    5.5673   -2.0184   35.0816 H   0  0  0  0  0  0  0  0  0  0  0  0
    3.8387   -1.8327   37.3477 H   0  0  0  0  0  0  0  0  0  0  0  0
    3.3743   -3.3468   38.1705 H   0  0  0  0  0  0  0  0  0  0  0  0
    2.5551   -2.8904   36.6543 H   0  0  0  0  0  0  0  0  0  0  0  0
    3.7819   -4.6293   33.3513 H   0  0  0  0  0  0  0  0  0  0  0  0
    1.4420   -3.6468   30.0766 H   0  0  0  0  0  0  0  0  0  0  0  0
    0.1355   -5.3277   28.8651 H   0  0  0  0  0  0  0  0  0  0  0  0
   -1.2476   -7.2212   34.3588 H   0  0  0  0  0  0  0  0  0  0  0  0
   -1.7194   -8.7280   33.8458 H   0  0  0  0  0  0  0  0  0  0  0  0
  1  2  1  0
  2  3  1  0
  3  4  1  0
  4  5  2  0
  5  6  1  0
  6  7  2  0
  7  8  1  0
  8  9  2  0
  2 10  1  0
 10 11  2  0
 10 12  1  0
 12 13  1  0
 13 14  1  0
 14 15  2  0
 15 16  1  0
 16 17  2  0
 17 18  1  0
 18 19  2  0
 19 20  1  0
 20 21  1  0
 21 22  1  0
 22 23  1  0
 22 24  2  0
 22 25  2  0
 20 26  2  0
 15 27  1  0
 27 28  2  0
 28 29  1  0
 29 30  2  0
 30 31  1  0
 31 32  2  0
 32 33  1  0
 32 34  1  0
  9  4  1  0
 34 14  1  0
 26 16  1  0
 34 29  1  0
  1 35  1  0
  1 36  1  0
  1 37  1  0
  3 38  1  0
  3 39  1  0
  5 40  1  0
  6 41  1  0
  7 42  1  0
  8 43  1  0
  9 44  1  0
 12 45  1  0
 13 46  1  0
 13 47  1  0
 17 48  1  0
 18 49  1  0
 19 50  1  0
 21 51  1  0
 23 52  1  0
 23 53  1  0
 23 54  1  0
 26 55  1  0
 27 56  1  0
 28 57  1  0
 33 58  1  0
 33 59  1  0
M  END
>  <Energy>  (819) 
-7.2653380450177938

>  <compound_id>  (819) 
3707

>  <target_id>  (819) 
1

>  <reference_id>  (819) 
168

>  <inspiration_ids>  (819) 
[129, 168]

>  <energy_score>  (819) 
5.060031229336474

>  <distance_score>  (819) 
1.3769134163038201

>  <path>  (819) 
/opt/xchem-fragalysis-2/maxwin/BulkDock/SCRATCH/505734/C3707-P168/C3707-P168.minimised.mol

>  <scratch_subdir>  (819) 
/opt/xchem-fragalysis-2/maxwin/BulkDock/SCRATCH/505734/C3707-P168

>  <fragmenstein_runtime>  (819) 
9.899033784866333

>  <fragmenstein_outcome>  (819) 
too moved

>  <fragmenstein_mode>  (819) 
expansion

>  <fragmenstein_error>  (819) 


$$$$
C3750-P129
     RDKit          3D

 59 62  0  0  0  0  0  0  0  0999 V2000
    6.2930    0.6470   35.1004 C   0  0  0  0  0  0  0  0  0  0  0  0
    6.3552   -0.4060   34.1465 O   0  0  0  0  0  0  0  0  0  0  0  0
    5.3665   -1.3506   34.1960 C   0  0  0  0  0  0  0  0  0  0  0  0
    5.1851   -2.0313   32.9880 C   0  0  0  0  0  0  0  0  0  0  0  0
    4.2212   -3.0313   32.8737 C   0  0  0  0  0  0  0  0  0  0  0  0
    3.4017   -3.3389   33.9622 C   0  0  0  0  0  0  0  0  0  0  0  0
    2.3650   -4.3672   33.8219 C   0  0  0  0  0  0  0  0  0  0  0  0
    2.6276   -5.7272   34.2810 C   0  0  0  0  0  0  0  0  0  0  0  0
    1.7403   -6.7143   34.1082 C   0  0  0  0  0  0  0  0  0  0  0  0
    0.5751   -6.4681   33.3549 C   0  0  0  0  0  0  0  0  0  0  0  0
   -0.3160   -7.2928   32.8624 N   0  0  0  0  0  0  0  0  0  0  0  0
   -1.2599   -6.5368   32.2357 N   0  0  0  0  0  0  0  0  0  0  0  0
   -0.9547   -5.2654   32.3874 C   0  0  0  0  0  0  0  0  0  0  0  0
   -1.6885   -4.2206   31.9264 N   0  0  0  0  0  0  0  0  0  0  0  0
    0.2713   -5.1471   33.0277 N   0  0  0  0  0  0  0  0  0  0  0  0
    1.1461   -4.0612   33.2979 C   0  0  0  0  0  0  0  0  0  0  0  0
    0.7043   -2.6314   33.1026 C   0  0  0  0  0  0  0  0  0  0  0  0
    1.1491   -2.0672   31.8617 N   0  0  0  0  0  0  0  0  0  0  0  0
    0.7892   -2.3792   30.4979 C   0  0  0  0  0  0  0  0  0  0  0  0
    0.1005   -3.2262   30.0673 O   0  0  0  0  0  0  0  0  0  0  0  0
    1.4741   -1.2866   29.8194 N   0  0  0  0  0  0  0  0  0  0  0  0
    1.4207   -0.8460   28.3989 C   0  0  0  0  0  0  0  0  0  0  0  0
    2.8883   -1.7251   29.4010 C   0  0  0  0  0  0  0  0  0  0  0  0
    3.2205   -2.8831   28.4637 C   0  0  0  0  0  0  0  0  0  0  0  0
    4.0867   -2.6386   27.3813 C   0  0  0  0  0  0  0  0  0  0  0  0
    4.5011   -3.6749   26.5458 C   0  0  0  0  0  0  0  0  0  0  0  0
    4.0521   -4.9715   26.7719 C   0  0  0  0  0  0  0  0  0  0  0  0
    3.2015   -5.2314   27.8424 C   0  0  0  0  0  0  0  0  0  0  0  0
    2.7949   -4.1979   28.6897 C   0  0  0  0  0  0  0  0  0  0  0  0
    3.5934   -2.6904   35.1788 C   0  0  0  0  0  0  0  0  0  0  0  0
    4.5971   -1.7260   35.3047 C   0  0  0  0  0  0  0  0  0  0  0  0
    4.7890   -1.1520   36.5320 O   0  0  0  0  0  0  0  0  0  0  0  0
    5.2933   -2.1078   37.4685 C   0  0  0  0  0  0  0  0  0  0  0  0
    5.2781    1.0437   35.2109 H   0  0  0  0  0  0  0  0  0  0  0  0
    6.7086    0.3243   36.0593 H   0  0  0  0  0  0  0  0  0  0  0  0
    6.9235    1.4626   34.7321 H   0  0  0  0  0  0  0  0  0  0  0  0
    5.8096   -1.7831   32.1325 H   0  0  0  0  0  0  0  0  0  0  0  0
    4.1101   -3.5628   31.9315 H   0  0  0  0  0  0  0  0  0  0  0  0
    3.5352   -5.9037   34.8535 H   0  0  0  0  0  0  0  0  0  0  0  0
    1.8877   -7.6931   34.5437 H   0  0  0  0  0  0  0  0  0  0  0  0
   -1.8640   -3.4838   32.6056 H   0  0  0  0  0  0  0  0  0  0  0  0
   -1.2220   -3.7595   31.1276 H   0  0  0  0  0  0  0  0  0  0  0  0
    1.1073   -1.9910   33.8957 H   0  0  0  0  0  0  0  0  0  0  0  0
   -0.3712   -2.4940   33.1859 H   0  0  0  0  0  0  0  0  0  0  0  0
    1.6973   -1.2158   31.8726 H   0  0  0  0  0  0  0  0  0  0  0  0
    1.2833   -1.6665   27.6897 H   0  0  0  0  0  0  0  0  0  0  0  0
    2.1274   -0.0609   28.0944 H   0  0  0  0  0  0  0  0  0  0  0  0
    0.4470   -0.3363   28.3423 H   0  0  0  0  0  0  0  0  0  0  0  0
    3.5306   -0.8450   29.2140 H   0  0  0  0  0  0  0  0  0  0  0  0
    3.3215   -2.0693   30.3504 H   0  0  0  0  0  0  0  0  0  0  0  0
    4.4605   -1.6350   27.1835 H   0  0  0  0  0  0  0  0  0  0  0  0
    5.1871   -3.4690   25.7270 H   0  0  0  0  0  0  0  0  0  0  0  0
    4.3836   -5.7770   26.1203 H   0  0  0  0  0  0  0  0  0  0  0  0
    2.8577   -6.2430   28.0281 H   0  0  0  0  0  0  0  0  0  0  0  0
    2.1540   -4.4448   29.5307 H   0  0  0  0  0  0  0  0  0  0  0  0
    2.9657   -2.9337   36.0322 H   0  0  0  0  0  0  0  0  0  0  0  0
    6.1064   -2.7066   37.0418 H   0  0  0  0  0  0  0  0  0  0  0  0
    4.4908   -2.7547   37.8372 H   0  0  0  0  0  0  0  0  0  0  0  0
    5.6959   -1.5544   38.3223 H   0  0  0  0  0  0  0  0  0  0  0  0
  1  2  1  0
  2  3  1  0
  3  4  2  0
  4  5  1  0
  5  6  2  0
  6  7  1  0
  7  8  1  0
  8  9  2  0
  9 10  1  0
 10 11  2  0
 11 12  1  0
 12 13  2  0
 13 14  1  0
 13 15  1  0
 15 16  1  0
 16 17  1  0
 17 18  1  0
 18 19  1  0
 19 20  2  0
 19 21  1  0
 21 22  1  0
 21 23  1  0
 23 24  1  0
 24 25  2  0
 25 26  1  0
 26 27  2  0
 27 28  1  0
 28 29  2  0
  6 30  1  0
 30 31  2  0
 31 32  1  0
 32 33  1  0
 31  3  1  0
 16  7  2  0
 29 24  1  0
 15 10  1  0
  1 34  1  0
  1 35  1  0
  1 36  1  0
  4 37  1  0
  5 38  1  0
  8 39  1  0
  9 40  1  0
 14 41  1  0
 14 42  1  0
 17 43  1  0
 17 44  1  0
 18 45  1  0
 22 46  1  0
 22 47  1  0
 22 48  1  0
 23 49  1  0
 23 50  1  0
 25 51  1  0
 26 52  1  0
 27 53  1  0
 28 54  1  0
 29 55  1  0
 30 56  1  0
 33 57  1  0
 33 58  1  0
 33 59  1  0
M  END
>  <Energy>  (820) 
89.267698659681614

>  <compound_id>  (820) 
3750

>  <target_id>  (820) 
1

>  <reference_id>  (820) 
129

>  <inspiration_ids>  (820) 
[129, 177]

>  <energy_score>  (820) 
45.1413529786841

>  <distance_score>  (820) 
3.335208687129935

>  <path>  (820) 
/opt/xchem-fragalysis-2/maxwin/BulkDock/SCRATCH/505734/C3750-P129/C3750-P129.minimised.mol

>  <scratch_subdir>  (820) 
/opt/xchem-fragalysis-2/maxwin/BulkDock/SCRATCH/505734/C3750-P129

>  <fragmenstein_runtime>  (820) 
13.417177438735962

>  <fragmenstein_outcome>  (820) 
too moved

>  <fragmenstein_mode>  (820) 
expansion

>  <fragmenstein_error>  (820) 


$$$$
C3750-P177
     RDKit          3D

 59 62  0  0  0  0  0  0  0  0999 V2000
    6.3559    0.2876   34.9794 C   0  0  0  0  0  0  0  0  0  0  0  0
    5.3448   -0.1406   35.8894 O   0  0  0  0  0  0  0  0  0  0  0  0
    4.6069   -1.2108   35.4621 C   0  0  0  0  0  0  0  0  0  0  0  0
    3.2495   -1.1539   35.7767 C   0  0  0  0  0  0  0  0  0  0  0  0
    2.3959   -2.1935   35.4080 C   0  0  0  0  0  0  0  0  0  0  0  0
    2.8911   -3.2876   34.6861 C   0  0  0  0  0  0  0  0  0  0  0  0
    1.9859   -4.3459   34.2128 C   0  0  0  0  0  0  0  0  0  0  0  0
    2.0360   -5.6784   34.8108 C   0  0  0  0  0  0  0  0  0  0  0  0
    1.2402   -6.6761   34.4022 C   0  0  0  0  0  0  0  0  0  0  0  0
    0.3169   -6.4404   33.3613 C   0  0  0  0  0  0  0  0  0  0  0  0
   -0.4954   -7.2518   32.7246 N   0  0  0  0  0  0  0  0  0  0  0  0
   -1.2180   -6.4954   31.8456 N   0  0  0  0  0  0  0  0  0  0  0  0
   -0.8791   -5.2342   32.0075 C   0  0  0  0  0  0  0  0  0  0  0  0
   -1.4806   -4.1628   31.4287 N   0  0  0  0  0  0  0  0  0  0  0  0
    0.2059   -5.1424   32.8660 N   0  0  0  0  0  0  0  0  0  0  0  0
    1.0753   -4.0827   33.2354 C   0  0  0  0  0  0  0  0  0  0  0  0
    1.0178   -2.7213   32.5715 C   0  0  0  0  0  0  0  0  0  0  0  0
    0.8678   -2.7352   31.1408 N   0  0  0  0  0  0  0  0  0  0  0  0
    1.3279   -3.6890   30.1457 C   0  0  0  0  0  0  0  0  0  0  0  0
    1.8687   -4.7234   30.2743 O   0  0  0  0  0  0  0  0  0  0  0  0
    0.8333   -3.0280   28.9475 N   0  0  0  0  0  0  0  0  0  0  0  0
    0.7596   -3.5054   27.5404 C   0  0  0  0  0  0  0  0  0  0  0  0
    1.9346   -2.1164   28.3488 C   0  0  0  0  0  0  0  0  0  0  0  0
    3.2405   -2.6347   27.7547 C   0  0  0  0  0  0  0  0  0  0  0  0
    3.5839   -2.2517   26.4467 C   0  0  0  0  0  0  0  0  0  0  0  0
    4.7541   -2.7089   25.8481 C   0  0  0  0  0  0  0  0  0  0  0  0
    5.6024   -3.5603   26.5456 C   0  0  0  0  0  0  0  0  0  0  0  0
    5.2934   -3.9272   27.8531 C   0  0  0  0  0  0  0  0  0  0  0  0
    4.1281   -3.4550   28.4610 C   0  0  0  0  0  0  0  0  0  0  0  0
    4.2518   -3.3643   34.3954 C   0  0  0  0  0  0  0  0  0  0  0  0
    5.1072   -2.3500   34.8240 C   0  0  0  0  0  0  0  0  0  0  0  0
    6.4446   -2.5316   34.6029 O   0  0  0  0  0  0  0  0  0  0  0  0
    7.0179   -3.1894   35.7363 C   0  0  0  0  0  0  0  0  0  0  0  0
    6.0556    0.1712   33.9319 H   0  0  0  0  0  0  0  0  0  0  0  0
    6.5287    1.3538   35.1565 H   0  0  0  0  0  0  0  0  0  0  0  0
    7.2959   -0.2338   35.1802 H   0  0  0  0  0  0  0  0  0  0  0  0
    2.8577   -0.2957   36.3175 H   0  0  0  0  0  0  0  0  0  0  0  0
    1.3423   -2.1323   35.6724 H   0  0  0  0  0  0  0  0  0  0  0  0
    2.7317   -5.8393   35.6311 H   0  0  0  0  0  0  0  0  0  0  0  0
    1.2652   -7.6463   34.8803 H   0  0  0  0  0  0  0  0  0  0  0  0
   -1.0627   -3.2614   31.6305 H   0  0  0  0  0  0  0  0  0  0  0  0
   -1.4348   -4.2310   30.4114 H   0  0  0  0  0  0  0  0  0  0  0  0
    0.1797   -2.1472   32.9828 H   0  0  0  0  0  0  0  0  0  0  0  0
    1.9195   -2.1246   32.7261 H   0  0  0  0  0  0  0  0  0  0  0  0
    0.5183   -1.9091   30.6712 H   0  0  0  0  0  0  0  0  0  0  0  0
    0.4907   -2.7667   26.7714 H   0  0  0  0  0  0  0  0  0  0  0  0
    1.5403   -4.2253   27.2659 H   0  0  0  0  0  0  0  0  0  0  0  0
   -0.1300   -4.1533   27.5688 H   0  0  0  0  0  0  0  0  0  0  0  0
    2.2768   -1.5241   29.2136 H   0  0  0  0  0  0  0  0  0  0  0  0
    1.4734   -1.3296   27.7255 H   0  0  0  0  0  0  0  0  0  0  0  0
    2.9457   -1.5901   25.8668 H   0  0  0  0  0  0  0  0  0  0  0  0
    4.9952   -2.3912   24.8358 H   0  0  0  0  0  0  0  0  0  0  0  0
    6.5113   -3.9291   26.0739 H   0  0  0  0  0  0  0  0  0  0  0  0
    5.9673   -4.5806   28.4008 H   0  0  0  0  0  0  0  0  0  0  0  0
    3.9348   -3.7434   29.4886 H   0  0  0  0  0  0  0  0  0  0  0  0
    4.6586   -4.2116   33.8494 H   0  0  0  0  0  0  0  0  0  0  0  0
    6.5930   -4.1903   35.8722 H   0  0  0  0  0  0  0  0  0  0  0  0
    6.8969   -2.5949   36.6488 H   0  0  0  0  0  0  0  0  0  0  0  0
    8.0899   -3.3016   35.5479 H   0  0  0  0  0  0  0  0  0  0  0  0
  1  2  1  0
  2  3  1  0
  3  4  2  0
  4  5  1  0
  5  6  2  0
  6  7  1  0
  7  8  1  0
  8  9  2  0
  9 10  1  0
 10 11  2  0
 11 12  1  0
 12 13  2  0
 13 14  1  0
 13 15  1  0
 15 16  1  0
 16 17  1  0
 17 18  1  0
 18 19  1  0
 19 20  2  0
 19 21  1  0
 21 22  1  0
 21 23  1  0
 23 24  1  0
 24 25  2  0
 25 26  1  0
 26 27  2  0
 27 28  1  0
 28 29  2  0
  6 30  1  0
 30 31  2  0
 31 32  1  0
 32 33  1  0
 31  3  1  0
 16  7  2  0
 29 24  1  0
 15 10  1  0
  1 34  1  0
  1 35  1  0
  1 36  1  0
  4 37  1  0
  5 38  1  0
  8 39  1  0
  9 40  1  0
 14 41  1  0
 14 42  1  0
 17 43  1  0
 17 44  1  0
 18 45  1  0
 22 46  1  0
 22 47  1  0
 22 48  1  0
 23 49  1  0
 23 50  1  0
 25 51  1  0
 26 52  1  0
 27 53  1  0
 28 54  1  0
 29 55  1  0
 30 56  1  0
 33 57  1  0
 33 58  1  0
 33 59  1  0
M  END
>  <Energy>  (821) 
90.896169283387081

>  <compound_id>  (821) 
3750

>  <target_id>  (821) 
1

>  <reference_id>  (821) 
177

>  <inspiration_ids>  (821) 
[129, 177]

>  <energy_score>  (821) 
46.769823602390886

>  <distance_score>  (821) 
3.3624757539972947

>  <path>  (821) 
/opt/xchem-fragalysis-2/maxwin/BulkDock/SCRATCH/505734/C3750-P177/C3750-P177.minimised.mol

>  <scratch_subdir>  (821) 
/opt/xchem-fragalysis-2/maxwin/BulkDock/SCRATCH/505734/C3750-P177

>  <fragmenstein_runtime>  (821) 
11.765731811523438

>  <fragmenstein_outcome>  (821) 
too moved

>  <fragmenstein_mode>  (821) 
expansion

>  <fragmenstein_error>  (821) 


$$$$
C3752-P129
     RDKit          3D

 42 44  0  0  0  0  0  0  0  0999 V2000
    0.5370   -7.4301   35.2514 C   0  0  0  0  0  0  0  0  0  0  0  0
    0.5258   -6.5246   34.1073 N   0  0  0  0  0  0  0  0  0  0  0  0
    1.6762   -5.6374   34.0750 C   0  0  0  0  0  0  0  0  0  0  0  0
    2.0728   -4.8827   32.8278 C   0  0  0  0  0  0  0  0  0  0  0  0
    2.8765   -3.7469   33.0517 C   0  0  0  0  0  0  0  0  0  0  0  0
    3.2587   -2.9191   32.0105 C   0  0  0  0  0  0  0  0  0  0  0  0
    2.8528   -3.2212   30.7202 C   0  0  0  0  0  0  0  0  0  0  0  0
    2.0830   -4.3601   30.4599 C   0  0  0  0  0  0  0  0  0  0  0  0
    1.7003   -5.2062   31.5065 C   0  0  0  0  0  0  0  0  0  0  0  0
    0.8281   -6.3905   31.2082 C   0  0  0  0  0  0  0  0  0  0  0  0
   -0.6041   -6.1726   31.4095 N   0  0  0  0  0  0  0  0  0  0  0  0
   -1.2228   -7.5120   31.4597 C   0  0  0  0  0  0  0  0  0  0  0  0
   -0.9023   -5.3818   32.5865 N   0  0  0  0  0  0  0  0  0  0  0  0
   -0.9123   -3.8809   32.4517 C   0  0  0  0  0  0  0  0  0  0  0  0
   -1.3480   -3.3484   31.0765 C   0  0  0  0  0  0  0  0  0  0  0  0
   -1.0436   -1.9999   30.6622 N   0  0  0  0  0  0  0  0  0  0  0  0
   -1.0947   -1.5711   29.3635 C   0  0  0  0  0  0  0  0  0  0  0  0
   -0.8833   -0.2772   29.3232 N   0  0  0  0  0  0  0  0  0  0  0  0
   -0.7047    0.1538   30.6160 N   0  0  0  0  0  0  0  0  0  0  0  0
   -0.8090   -0.8912   31.4067 C   0  0  0  0  0  0  0  0  0  0  0  0
   -0.7538   -6.0181   33.8310 C   0  0  0  0  0  0  0  0  0  0  0  0
   -1.7174   -6.3247   34.5325 O   0  0  0  0  0  0  0  0  0  0  0  0
   -0.2901   -8.1424   35.1866 H   0  0  0  0  0  0  0  0  0  0  0  0
    0.4313   -6.8529   36.1761 H   0  0  0  0  0  0  0  0  0  0  0  0
    1.4794   -7.9846   35.2681 H   0  0  0  0  0  0  0  0  0  0  0  0
    1.5048   -4.9088   34.8797 H   0  0  0  0  0  0  0  0  0  0  0  0
    2.5553   -6.2356   34.3491 H   0  0  0  0  0  0  0  0  0  0  0  0
    3.1919   -3.4835   34.0609 H   0  0  0  0  0  0  0  0  0  0  0  0
    3.8581   -2.0321   32.1999 H   0  0  0  0  0  0  0  0  0  0  0  0
    3.1285   -2.5602   29.8998 H   0  0  0  0  0  0  0  0  0  0  0  0
    1.7689   -4.5598   29.4372 H   0  0  0  0  0  0  0  0  0  0  0  0
    0.9821   -6.6939   30.1652 H   0  0  0  0  0  0  0  0  0  0  0  0
    1.1812   -7.2169   31.8221 H   0  0  0  0  0  0  0  0  0  0  0  0
   -1.0092   -8.0339   30.5220 H   0  0  0  0  0  0  0  0  0  0  0  0
   -0.8441   -8.1395   32.2742 H   0  0  0  0  0  0  0  0  0  0  0  0
   -2.3026   -7.4633   31.5667 H   0  0  0  0  0  0  0  0  0  0  0  0
    0.0513   -3.4712   32.7470 H   0  0  0  0  0  0  0  0  0  0  0  0
   -1.6003   -3.5063   33.2179 H   0  0  0  0  0  0  0  0  0  0  0  0
   -0.9549   -3.9823   30.2763 H   0  0  0  0  0  0  0  0  0  0  0  0
   -2.4366   -3.3929   31.0396 H   0  0  0  0  0  0  0  0  0  0  0  0
   -1.3012   -2.2092   28.5129 H   0  0  0  0  0  0  0  0  0  0  0  0
   -0.7297   -0.8795   32.4839 H   0  0  0  0  0  0  0  0  0  0  0  0
  1  2  1  0
  2  3  1  0
  3  4  1  0
  4  5  2  0
  5  6  1  0
  6  7  2  0
  7  8  1  0
  8  9  2  0
  9 10  1  0
 10 11  1  0
 11 12  1  0
 11 13  1  0
 13 14  1  0
 14 15  1  0
 15 16  1  0
 16 17  1  0
 17 18  2  0
 18 19  1  0
 19 20  2  0
 13 21  1  0
 21 22  2  0
 21  2  1  0
  9  4  1  0
 20 16  1  0
  1 23  1  0
  1 24  1  0
  1 25  1  0
  3 26  1  0
  3 27  1  0
  5 28  1  0
  6 29  1  0
  7 30  1  0
  8 31  1  0
 10 32  1  0
 10 33  1  0
 12 34  1  0
 12 35  1  0
 12 36  1  0
 14 37  1  0
 14 38  1  0
 15 39  1  0
 15 40  1  0
 17 41  1  0
 20 42  1  0
M  END
>  <Energy>  (822) 
53.081852274201928

>  <compound_id>  (822) 
3752

>  <target_id>  (822) 
1

>  <reference_id>  (822) 
129

>  <inspiration_ids>  (822) 
[129, 186]

>  <energy_score>  (822) 
-70.2792781488352

>  <distance_score>  (822) 
2.289193728549106

>  <path>  (822) 
/opt/xchem-fragalysis-2/maxwin/BulkDock/SCRATCH/505734/C3752-P129/C3752-P129.minimised.mol

>  <scratch_subdir>  (822) 
/opt/xchem-fragalysis-2/maxwin/BulkDock/SCRATCH/505734/C3752-P129

>  <fragmenstein_runtime>  (822) 
5.928024768829346

>  <fragmenstein_outcome>  (822) 
too moved

>  <fragmenstein_mode>  (822) 
expansion

>  <fragmenstein_error>  (822) 


$$$$
C3752-P186
     RDKit          3D

 42 44  0  0  0  0  0  0  0  0999 V2000
   -0.0856   -5.4914   35.9661 C   0  0  0  0  0  0  0  0  0  0  0  0
    0.1303   -5.3813   34.5335 N   0  0  0  0  0  0  0  0  0  0  0  0
    1.4523   -5.8169   34.0974 C   0  0  0  0  0  0  0  0  0  0  0  0
    2.0124   -5.0152   32.9438 C   0  0  0  0  0  0  0  0  0  0  0  0
    2.8080   -3.9014   33.2606 C   0  0  0  0  0  0  0  0  0  0  0  0
    3.2813   -3.0610   32.2660 C   0  0  0  0  0  0  0  0  0  0  0  0
    2.9564   -3.3183   30.9404 C   0  0  0  0  0  0  0  0  0  0  0  0
    2.1625   -4.4192   30.5947 C   0  0  0  0  0  0  0  0  0  0  0  0
    1.6848   -5.2781   31.5891 C   0  0  0  0  0  0  0  0  0  0  0  0
    0.7814   -6.4224   31.2075 C   0  0  0  0  0  0  0  0  0  0  0  0
   -0.6677   -6.2218   31.3657 N   0  0  0  0  0  0  0  0  0  0  0  0
   -1.2471   -7.5782   31.4500 C   0  0  0  0  0  0  0  0  0  0  0  0
   -1.0145   -5.3567   32.4808 N   0  0  0  0  0  0  0  0  0  0  0  0
   -0.8875   -3.8620   32.2752 C   0  0  0  0  0  0  0  0  0  0  0  0
   -1.3315   -3.3727   30.8959 C   0  0  0  0  0  0  0  0  0  0  0  0
   -1.0814   -2.0163   30.4736 N   0  0  0  0  0  0  0  0  0  0  0  0
   -1.1215   -1.6104   29.1679 C   0  0  0  0  0  0  0  0  0  0  0  0
   -1.0447   -0.3023   29.1142 N   0  0  0  0  0  0  0  0  0  0  0  0
   -0.9514    0.1604   30.4062 N   0  0  0  0  0  0  0  0  0  0  0  0
   -0.9728   -0.8810   31.2089 C   0  0  0  0  0  0  0  0  0  0  0  0
   -0.9077   -5.9212   33.7700 C   0  0  0  0  0  0  0  0  0  0  0  0
   -1.5997   -6.8519   34.1851 O   0  0  0  0  0  0  0  0  0  0  0  0
   -1.0962   -5.1489   36.2125 H   0  0  0  0  0  0  0  0  0  0  0  0
    0.0218   -6.5341   36.2838 H   0  0  0  0  0  0  0  0  0  0  0  0
    0.6385   -4.8615   36.4904 H   0  0  0  0  0  0  0  0  0  0  0  0
    2.1473   -5.7217   34.9429 H   0  0  0  0  0  0  0  0  0  0  0  0
    1.4310   -6.8884   33.8683 H   0  0  0  0  0  0  0  0  0  0  0  0
    3.0451   -3.6683   34.2974 H   0  0  0  0  0  0  0  0  0  0  0  0
    3.8890   -2.1956   32.5189 H   0  0  0  0  0  0  0  0  0  0  0  0
    3.3122   -2.6478   30.1594 H   0  0  0  0  0  0  0  0  0  0  0  0
    1.9087   -4.5779   29.5480 H   0  0  0  0  0  0  0  0  0  0  0  0
    0.9669   -6.6907   30.1601 H   0  0  0  0  0  0  0  0  0  0  0  0
    1.1035   -7.2772   31.7990 H   0  0  0  0  0  0  0  0  0  0  0  0
   -2.3261   -7.5713   31.5622 H   0  0  0  0  0  0  0  0  0  0  0  0
   -1.0207   -8.1133   30.5222 H   0  0  0  0  0  0  0  0  0  0  0  0
   -0.8342   -8.1780   32.2690 H   0  0  0  0  0  0  0  0  0  0  0  0
    0.1045   -3.4971   32.5239 H   0  0  0  0  0  0  0  0  0  0  0  0
   -1.5334   -3.4046   33.0359 H   0  0  0  0  0  0  0  0  0  0  0  0
   -0.9081   -4.0071   30.1104 H   0  0  0  0  0  0  0  0  0  0  0  0
   -2.4166   -3.4611   30.8575 H   0  0  0  0  0  0  0  0  0  0  0  0
   -1.2352   -2.2804   28.3248 H   0  0  0  0  0  0  0  0  0  0  0  0
   -0.9293   -0.8503   32.2879 H   0  0  0  0  0  0  0  0  0  0  0  0
  1  2  1  0
  2  3  1  0
  3  4  1  0
  4  5  2  0
  5  6  1  0
  6  7  2  0
  7  8  1  0
  8  9  2  0
  9 10  1  0
 10 11  1  0
 11 12  1  0
 11 13  1  0
 13 14  1  0
 14 15  1  0
 15 16  1  0
 16 17  1  0
 17 18  2  0
 18 19  1  0
 19 20  2  0
 13 21  1  0
 21 22  2  0
 21  2  1  0
  9  4  1  0
 20 16  1  0
  1 23  1  0
  1 24  1  0
  1 25  1  0
  3 26  1  0
  3 27  1  0
  5 28  1  0
  6 29  1  0
  7 30  1  0
  8 31  1  0
 10 32  1  0
 10 33  1  0
 12 34  1  0
 12 35  1  0
 12 36  1  0
 14 37  1  0
 14 38  1  0
 15 39  1  0
 15 40  1  0
 17 41  1  0
 20 42  1  0
M  END
>  <Energy>  (823) 
49.202828008549758

>  <compound_id>  (823) 
3752

>  <target_id>  (823) 
1

>  <reference_id>  (823) 
186

>  <inspiration_ids>  (823) 
[129, 186]

>  <energy_score>  (823) 
-74.15830241448617

>  <distance_score>  (823) 
2.383387246069883

>  <path>  (823) 
/opt/xchem-fragalysis-2/maxwin/BulkDock/SCRATCH/505734/C3752-P186/C3752-P186.minimised.mol

>  <scratch_subdir>  (823) 
/opt/xchem-fragalysis-2/maxwin/BulkDock/SCRATCH/505734/C3752-P186

>  <fragmenstein_runtime>  (823) 
6.1465535163879395

>  <fragmenstein_outcome>  (823) 
too moved

>  <fragmenstein_mode>  (823) 
expansion

>  <fragmenstein_error>  (823) 


$$$$
C3754-P129
     RDKit          3D

 59 62  0  0  0  0  0  0  0  0999 V2000
    9.1175   -1.3714   33.0737 C   0  0  0  0  0  0  0  0  0  0  0  0
    7.7971   -1.9333   33.0887 N   0  0  0  0  0  0  0  0  0  0  0  0
    6.8450   -2.0592   34.1449 C   0  0  0  0  0  0  0  0  0  0  0  0
    6.9305   -1.8005   35.3082 O   0  0  0  0  0  0  0  0  0  0  0  0
    5.5369   -2.6167   33.6862 C   0  0  0  0  0  0  0  0  0  0  0  0
    4.9182   -3.5991   34.4616 C   0  0  0  0  0  0  0  0  0  0  0  0
    3.6859   -4.1378   34.0747 C   0  0  0  0  0  0  0  0  0  0  0  0
    3.0439   -3.7124   32.8989 C   0  0  0  0  0  0  0  0  0  0  0  0
    1.6566   -4.2498   32.4720 C   0  0  0  0  0  0  0  0  0  0  0  0
    0.7245   -3.1675   32.7696 N   0  0  0  0  0  0  0  0  0  0  0  0
   -0.3014   -3.0534   33.7833 C   0  0  0  0  0  0  0  0  0  0  0  0
   -0.6877   -3.8365   34.5659 O   0  0  0  0  0  0  0  0  0  0  0  0
   -0.6826   -1.6601   33.5771 N   0  0  0  0  0  0  0  0  0  0  0  0
   -1.5860   -0.7852   34.3591 C   0  0  0  0  0  0  0  0  0  0  0  0
   -1.8327   -1.5725   32.5606 C   0  0  0  0  0  0  0  0  0  0  0  0
   -1.2631   -1.0947   31.2181 C   0  0  0  0  0  0  0  0  0  0  0  0
   -1.5530   -1.7878   30.0385 C   0  0  0  0  0  0  0  0  0  0  0  0
   -1.1357   -1.3030   28.7985 C   0  0  0  0  0  0  0  0  0  0  0  0
   -0.4001   -0.1262   28.7203 C   0  0  0  0  0  0  0  0  0  0  0  0
   -0.0744    0.5616   29.8854 C   0  0  0  0  0  0  0  0  0  0  0  0
   -0.5057    0.0834   31.1264 C   0  0  0  0  0  0  0  0  0  0  0  0
    1.6579   -4.5369   30.9398 C   0  0  0  0  0  0  0  0  0  0  0  0
    0.3466   -5.1239   30.4256 C   0  0  0  0  0  0  0  0  0  0  0  0
   -0.1582   -6.2094   31.2854 C   0  0  0  0  0  0  0  0  0  0  0  0
   -0.9750   -7.1920   30.9787 N   0  0  0  0  0  0  0  0  0  0  0  0
   -1.2185   -7.8993   32.1354 N   0  0  0  0  0  0  0  0  0  0  0  0
   -0.5607   -7.3239   33.1172 C   0  0  0  0  0  0  0  0  0  0  0  0
   -0.5020   -7.6744   34.4158 N   0  0  0  0  0  0  0  0  0  0  0  0
    0.1725   -6.2939   32.6057 N   0  0  0  0  0  0  0  0  0  0  0  0
    1.2799   -5.5820   33.2041 C   0  0  0  0  0  0  0  0  0  0  0  0
    3.6651   -2.6820   32.1573 C   0  0  0  0  0  0  0  0  0  0  0  0
    4.8952   -2.1398   32.5422 C   0  0  0  0  0  0  0  0  0  0  0  0
    9.4745   -1.2396   34.0977 H   0  0  0  0  0  0  0  0  0  0  0  0
    9.0747   -0.4030   32.5700 H   0  0  0  0  0  0  0  0  0  0  0  0
    9.7775   -2.0447   32.5227 H   0  0  0  0  0  0  0  0  0  0  0  0
    7.3510   -2.1716   32.2127 H   0  0  0  0  0  0  0  0  0  0  0  0
    5.3898   -3.9370   35.3832 H   0  0  0  0  0  0  0  0  0  0  0  0
    3.2388   -4.8727   34.7397 H   0  0  0  0  0  0  0  0  0  0  0  0
    0.8536   -2.2657   32.3263 H   0  0  0  0  0  0  0  0  0  0  0  0
   -2.5074   -1.2833   34.7014 H   0  0  0  0  0  0  0  0  0  0  0  0
   -1.0362   -0.6265   35.2982 H   0  0  0  0  0  0  0  0  0  0  0  0
   -1.7105    0.2300   33.9539 H   0  0  0  0  0  0  0  0  0  0  0  0
   -2.2100   -2.5978   32.4224 H   0  0  0  0  0  0  0  0  0  0  0  0
   -2.7438   -0.9590   32.7056 H   0  0  0  0  0  0  0  0  0  0  0  0
   -2.1341   -2.7043   30.0613 H   0  0  0  0  0  0  0  0  0  0  0  0
   -1.4099   -1.8343   27.8893 H   0  0  0  0  0  0  0  0  0  0  0  0
   -0.0930    0.2527   27.7489 H   0  0  0  0  0  0  0  0  0  0  0  0
    0.4977    1.4844   29.8251 H   0  0  0  0  0  0  0  0  0  0  0  0
   -0.2512    0.6481   32.0201 H   0  0  0  0  0  0  0  0  0  0  0  0
    2.4713   -5.2374   30.7077 H   0  0  0  0  0  0  0  0  0  0  0  0
    1.8537   -3.6323   30.3525 H   0  0  0  0  0  0  0  0  0  0  0  0
   -0.4139   -4.3414   30.3723 H   0  0  0  0  0  0  0  0  0  0  0  0
    0.5006   -5.4902   29.4098 H   0  0  0  0  0  0  0  0  0  0  0  0
   -0.6946   -6.9319   35.0860 H   0  0  0  0  0  0  0  0  0  0  0  0
   -1.0844   -8.4933   34.6479 H   0  0  0  0  0  0  0  0  0  0  0  0
    2.1217   -6.2853   33.1462 H   0  0  0  0  0  0  0  0  0  0  0  0
    1.0629   -5.4313   34.2654 H   0  0  0  0  0  0  0  0  0  0  0  0
    3.1819   -2.2517   31.2822 H   0  0  0  0  0  0  0  0  0  0  0  0
    5.3174   -1.3205   31.9660 H   0  0  0  0  0  0  0  0  0  0  0  0
  1  2  1  0
  2  3  1  0
  3  4  2  0
  3  5  1  0
  5  6  2  0
  6  7  1  0
  7  8  2  0
  8  9  1  0
  9 10  1  0
 10 11  1  0
 11 12  2  0
 11 13  1  0
 13 14  1  0
 13 15  1  0
 15 16  1  0
 16 17  2  0
 17 18  1  0
 18 19  2  0
 19 20  1  0
 20 21  2  0
  9 22  1  0
 22 23  1  0
 23 24  1  0
 24 25  2  0
 25 26  1  0
 26 27  2  0
 27 28  1  0
 27 29  1  0
 29 30  1  0
  8 31  1  0
 31 32  2  0
 32  5  1  0
 30  9  1  0
 21 16  1  0
 29 24  1  0
  1 33  1  0
  1 34  1  0
  1 35  1  0
  2 36  1  0
  6 37  1  0
  7 38  1  0
 10 39  1  0
 14 40  1  0
 14 41  1  0
 14 42  1  0
 15 43  1  0
 15 44  1  0
 17 45  1  0
 18 46  1  0
 19 47  1  0
 20 48  1  0
 21 49  1  0
 22 50  1  0
 22 51  1  0
 23 52  1  0
 23 53  1  0
 28 54  1  0
 28 55  1  0
 30 56  1  0
 30 57  1  0
 31 58  1  0
 32 59  1  0
M  END
>  <Energy>  (824) 
22.343007911573263

>  <compound_id>  (824) 
3754

>  <target_id>  (824) 
1

>  <reference_id>  (824) 
129

>  <inspiration_ids>  (824) 
[129, 188]

>  <energy_score>  (824) 
34.43733753994667

>  <distance_score>  (824) 
1.6449023690963294

>  <path>  (824) 
/opt/xchem-fragalysis-2/maxwin/BulkDock/SCRATCH/505734/C3754-P129/C3754-P129.minimised.mol

>  <scratch_subdir>  (824) 
/opt/xchem-fragalysis-2/maxwin/BulkDock/SCRATCH/505734/C3754-P129

>  <fragmenstein_runtime>  (824) 
9.497076749801636

>  <fragmenstein_outcome>  (824) 
too moved

>  <fragmenstein_mode>  (824) 
expansion

>  <fragmenstein_error>  (824) 


$$$$
C3754-P188
     RDKit          3D

 59 62  0  0  0  0  0  0  0  0999 V2000
    7.9416   -1.4113   35.9936 C   0  0  0  0  0  0  0  0  0  0  0  0
    6.7720   -2.0618   35.4757 N   0  0  0  0  0  0  0  0  0  0  0  0
    5.9850   -3.1294   36.0009 C   0  0  0  0  0  0  0  0  0  0  0  0
    6.1404   -3.8112   36.9696 O   0  0  0  0  0  0  0  0  0  0  0  0
    4.7970   -3.4475   35.1583 C   0  0  0  0  0  0  0  0  0  0  0  0
    4.9047   -3.6300   33.7794 C   0  0  0  0  0  0  0  0  0  0  0  0
    3.7703   -3.9514   33.0248 C   0  0  0  0  0  0  0  0  0  0  0  0
    2.5111   -4.1259   33.6306 C   0  0  0  0  0  0  0  0  0  0  0  0
    1.2105   -4.4123   32.8215 C   0  0  0  0  0  0  0  0  0  0  0  0
    0.5375   -3.1188   32.8142 N   0  0  0  0  0  0  0  0  0  0  0  0
   -0.7609   -2.7316   32.3190 C   0  0  0  0  0  0  0  0  0  0  0  0
   -1.5677   -3.3478   31.7287 O   0  0  0  0  0  0  0  0  0  0  0  0
   -0.7384   -1.3251   32.6958 N   0  0  0  0  0  0  0  0  0  0  0  0
   -1.7720   -0.2713   32.5482 C   0  0  0  0  0  0  0  0  0  0  0  0
   -0.0431   -0.4907   31.5955 C   0  0  0  0  0  0  0  0  0  0  0  0
   -0.5369   -0.2418   30.1811 C   0  0  0  0  0  0  0  0  0  0  0  0
   -1.0896   -1.2310   29.3677 C   0  0  0  0  0  0  0  0  0  0  0  0
   -1.5315   -0.9156   28.0860 C   0  0  0  0  0  0  0  0  0  0  0  0
   -1.4125    0.3789   27.5889 C   0  0  0  0  0  0  0  0  0  0  0  0
   -0.8150    1.3623   28.3610 C   0  0  0  0  0  0  0  0  0  0  0  0
   -0.3632    1.0470   29.6409 C   0  0  0  0  0  0  0  0  0  0  0  0
    1.5501   -4.8582   31.3700 C   0  0  0  0  0  0  0  0  0  0  0  0
    0.3999   -5.4508   30.5659 C   0  0  0  0  0  0  0  0  0  0  0  0
   -0.3427   -6.4421   31.3617 C   0  0  0  0  0  0  0  0  0  0  0  0
   -1.0129   -7.4914   30.9419 N   0  0  0  0  0  0  0  0  0  0  0  0
   -1.5333   -8.1152   32.0530 N   0  0  0  0  0  0  0  0  0  0  0  0
   -1.1656   -7.4415   33.1206 C   0  0  0  0  0  0  0  0  0  0  0  0
   -1.4247   -7.7126   34.4164 N   0  0  0  0  0  0  0  0  0  0  0  0
   -0.4016   -6.3831   32.7224 N   0  0  0  0  0  0  0  0  0  0  0  0
    0.3606   -5.4910   33.5606 C   0  0  0  0  0  0  0  0  0  0  0  0
    2.4281   -3.9227   35.0233 C   0  0  0  0  0  0  0  0  0  0  0  0
    3.5576   -3.5995   35.7787 C   0  0  0  0  0  0  0  0  0  0  0  0
    8.2191   -1.8546   36.9526 H   0  0  0  0  0  0  0  0  0  0  0  0
    7.7202   -0.3493   36.1202 H   0  0  0  0  0  0  0  0  0  0  0  0
    8.7537   -1.5337   35.2737 H   0  0  0  0  0  0  0  0  0  0  0  0
    6.3796   -1.7673   34.5906 H   0  0  0  0  0  0  0  0  0  0  0  0
    5.8686   -3.5466   33.2828 H   0  0  0  0  0  0  0  0  0  0  0  0
    3.9071   -4.0518   31.9511 H   0  0  0  0  0  0  0  0  0  0  0  0
    0.9280   -2.3542   33.3516 H   0  0  0  0  0  0  0  0  0  0  0  0
   -2.4185   -0.3804   31.6692 H   0  0  0  0  0  0  0  0  0  0  0  0
   -2.4731   -0.5131   33.3618 H   0  0  0  0  0  0  0  0  0  0  0  0
   -1.4638    0.7543   32.7941 H   0  0  0  0  0  0  0  0  0  0  0  0
    0.8953   -1.0404   31.4138 H   0  0  0  0  0  0  0  0  0  0  0  0
    0.3516    0.4337   32.0555 H   0  0  0  0  0  0  0  0  0  0  0  0
   -1.2151   -2.2547   29.6993 H   0  0  0  0  0  0  0  0  0  0  0  0
   -2.0057   -1.6824   27.4774 H   0  0  0  0  0  0  0  0  0  0  0  0
   -1.8037    0.6089   26.6022 H   0  0  0  0  0  0  0  0  0  0  0  0
   -0.7203    2.3736   27.9742 H   0  0  0  0  0  0  0  0  0  0  0  0
    0.1140    1.8327   30.2226 H   0  0  0  0  0  0  0  0  0  0  0  0
    2.3226   -5.6347   31.4207 H   0  0  0  0  0  0  0  0  0  0  0  0
    1.9746   -4.0255   30.7937 H   0  0  0  0  0  0  0  0  0  0  0  0
   -0.2699   -4.6716   30.1969 H   0  0  0  0  0  0  0  0  0  0  0  0
    0.8198   -5.9387   29.6805 H   0  0  0  0  0  0  0  0  0  0  0  0
   -0.7739   -7.4238   35.1356 H   0  0  0  0  0  0  0  0  0  0  0  0
   -1.6430   -8.7108   34.5750 H   0  0  0  0  0  0  0  0  0  0  0  0
    1.0215   -6.1560   34.1335 H   0  0  0  0  0  0  0  0  0  0  0  0
   -0.3431   -5.0290   34.2645 H   0  0  0  0  0  0  0  0  0  0  0  0
    1.4748   -3.9987   35.5457 H   0  0  0  0  0  0  0  0  0  0  0  0
    3.4706   -3.4667   36.8561 H   0  0  0  0  0  0  0  0  0  0  0  0
  1  2  1  0
  2  3  1  0
  3  4  2  0
  3  5  1  0
  5  6  2  0
  6  7  1  0
  7  8  2  0
  8  9  1  0
  9 10  1  0
 10 11  1  0
 11 12  2  0
 11 13  1  0
 13 14  1  0
 13 15  1  0
 15 16  1  0
 16 17  2  0
 17 18  1  0
 18 19  2  0
 19 20  1  0
 20 21  2  0
  9 22  1  0
 22 23  1  0
 23 24  1  0
 24 25  2  0
 25 26  1  0
 26 27  2  0
 27 28  1  0
 27 29  1  0
 29 30  1  0
  8 31  1  0
 31 32  2  0
 32  5  1  0
 30  9  1  0
 21 16  1  0
 29 24  1  0
  1 33  1  0
  1 34  1  0
  1 35  1  0
  2 36  1  0
  6 37  1  0
  7 38  1  0
 10 39  1  0
 14 40  1  0
 14 41  1  0
 14 42  1  0
 15 43  1  0
 15 44  1  0
 17 45  1  0
 18 46  1  0
 19 47  1  0
 20 48  1  0
 21 49  1  0
 22 50  1  0
 22 51  1  0
 23 52  1  0
 23 53  1  0
 28 54  1  0
 28 55  1  0
 30 56  1  0
 30 57  1  0
 31 58  1  0
 32 59  1  0
M  END
>  <Energy>  (825) 
34.008605861282035

>  <compound_id>  (825) 
3754

>  <target_id>  (825) 
1

>  <reference_id>  (825) 
188

>  <inspiration_ids>  (825) 
[129, 188]

>  <energy_score>  (825) 
46.10293548965731

>  <distance_score>  (825) 
1.9135800825289593

>  <path>  (825) 
/opt/xchem-fragalysis-2/maxwin/BulkDock/SCRATCH/505734/C3754-P188/C3754-P188.minimised.mol

>  <scratch_subdir>  (825) 
/opt/xchem-fragalysis-2/maxwin/BulkDock/SCRATCH/505734/C3754-P188

>  <fragmenstein_runtime>  (825) 
9.36047649383545

>  <fragmenstein_outcome>  (825) 
too moved

>  <fragmenstein_mode>  (825) 
expansion

>  <fragmenstein_error>  (825) 


$$$$
C3757-P129
     RDKit          3D

 64 69  0  0  0  0  0  0  0  0999 V2000
    6.1475   -3.0248   34.1733 C   0  0  0  0  0  0  0  0  0  0  0  0
    5.0716   -2.0803   34.6514 N   0  0  0  0  0  0  0  0  0  0  0  0
    6.2956   -1.2448   34.9443 C   0  0  0  0  0  0  0  0  0  0  0  0
    5.7926    0.0345   35.6216 C   0  0  0  0  0  0  0  0  0  0  0  0
    5.3924    1.1371   34.8508 C   0  0  0  0  0  0  0  0  0  0  0  0
    4.9108    2.2933   35.4658 C   0  0  0  0  0  0  0  0  0  0  0  0
    4.8172    2.3573   36.8547 C   0  0  0  0  0  0  0  0  0  0  0  0
    5.1973    1.2632   37.6303 C   0  0  0  0  0  0  0  0  0  0  0  0
    5.6777    0.1042   37.0181 C   0  0  0  0  0  0  0  0  0  0  0  0
    3.9852   -1.9091   33.6045 C   0  0  0  0  0  0  0  0  0  0  0  0
    3.8888   -1.1291   32.7265 O   0  0  0  0  0  0  0  0  0  0  0  0
    2.8635   -2.9135   33.9240 C   0  0  0  0  0  0  0  0  0  0  0  0
    3.1115   -4.3797   33.5909 C   0  0  0  0  0  0  0  0  0  0  0  0
    1.7186   -4.9827   33.5107 C   0  0  0  0  0  0  0  0  0  0  0  0
    1.5412   -6.0397   32.4388 C   0  0  0  0  0  0  0  0  0  0  0  0
    0.1005   -5.8434   31.9421 C   0  0  0  0  0  0  0  0  0  0  0  0
   -0.1099   -6.6052   30.6378 C   0  0  0  0  0  0  0  0  0  0  0  0
   -0.8736   -7.8200   30.9619 N   0  0  0  0  0  0  0  0  0  0  0  0
   -0.9172   -7.9051   32.4015 N   0  0  0  0  0  0  0  0  0  0  0  0
   -0.8690   -6.5317   32.9004 C   0  0  0  0  0  0  0  0  0  0  0  0
    0.0746   -4.2913   31.8388 C   0  0  0  0  0  0  0  0  0  0  0  0
   -1.5449   -3.4900   31.6358 S   0  0  0  0  0  0  0  0  0  0  0  0
   -1.1278   -2.0517   30.7702 C   0  0  0  0  0  0  0  0  0  0  0  0
   -1.8183   -1.5174   29.7904 N   0  0  0  0  0  0  0  0  0  0  0  0
   -1.2009   -0.3182   29.4775 N   0  0  0  0  0  0  0  0  0  0  0  0
   -0.1698   -0.2202   30.2880 C   0  0  0  0  0  0  0  0  0  0  0  0
    0.7155    0.8725   30.4237 C   0  0  0  0  0  0  0  0  0  0  0  0
    0.7140    2.1284   29.8568 C   0  0  0  0  0  0  0  0  0  0  0  0
    1.7755    2.8547   30.4500 C   0  0  0  0  0  0  0  0  0  0  0  0
    2.4049    2.0087   31.3367 C   0  0  0  0  0  0  0  0  0  0  0  0
    1.7930    0.7947   31.2735 N   0  0  0  0  0  0  0  0  0  0  0  0
   -0.0568   -1.3006   31.1134 O   0  0  0  0  0  0  0  0  0  0  0  0
    0.7602   -3.8485   33.1453 C   0  0  0  0  0  0  0  0  0  0  0  0
    1.6397   -2.6135   33.0575 C   0  0  0  0  0  0  0  0  0  0  0  0
    6.7848   -3.4418   34.9681 H   0  0  0  0  0  0  0  0  0  0  0  0
    6.6899   -2.6942   33.2727 H   0  0  0  0  0  0  0  0  0  0  0  0
    5.6253   -3.9132   33.8040 H   0  0  0  0  0  0  0  0  0  0  0  0
    6.8116   -0.8874   34.0372 H   0  0  0  0  0  0  0  0  0  0  0  0
    7.0005   -1.6754   35.6749 H   0  0  0  0  0  0  0  0  0  0  0  0
    5.4395    1.0942   33.7641 H   0  0  0  0  0  0  0  0  0  0  0  0
    4.6007    3.1410   34.8598 H   0  0  0  0  0  0  0  0  0  0  0  0
    4.4387    3.2575   37.3319 H   0  0  0  0  0  0  0  0  0  0  0  0
    5.1123    1.3109   38.7128 H   0  0  0  0  0  0  0  0  0  0  0  0
    5.9548   -0.7459   37.6366 H   0  0  0  0  0  0  0  0  0  0  0  0
    2.5920   -2.8042   34.9822 H   0  0  0  0  0  0  0  0  0  0  0  0
    3.7053   -4.8815   34.3617 H   0  0  0  0  0  0  0  0  0  0  0  0
    3.6546   -4.4706   32.6427 H   0  0  0  0  0  0  0  0  0  0  0  0
    1.4419   -5.3866   34.4934 H   0  0  0  0  0  0  0  0  0  0  0  0
    1.7173   -7.0248   32.8658 H   0  0  0  0  0  0  0  0  0  0  0  0
    2.2466   -5.8782   31.6178 H   0  0  0  0  0  0  0  0  0  0  0  0
    0.8364   -6.8793   30.1630 H   0  0  0  0  0  0  0  0  0  0  0  0
   -0.6428   -6.0109   29.8994 H   0  0  0  0  0  0  0  0  0  0  0  0
   -0.3791   -8.6366   30.5740 H   0  0  0  0  0  0  0  0  0  0  0  0
   -1.7577   -8.3871   32.7464 H   0  0  0  0  0  0  0  0  0  0  0  0
   -1.8530   -6.0870   32.8655 H   0  0  0  0  0  0  0  0  0  0  0  0
   -0.5459   -6.5214   33.9455 H   0  0  0  0  0  0  0  0  0  0  0  0
    0.6926   -4.0123   30.9742 H   0  0  0  0  0  0  0  0  0  0  0  0
   -0.0011    2.4987   29.1309 H   0  0  0  0  0  0  0  0  0  0  0  0
    2.0393    3.8870   30.2571 H   0  0  0  0  0  0  0  0  0  0  0  0
    3.2553    2.1651   31.9868 H   0  0  0  0  0  0  0  0  0  0  0  0
    2.0822   -0.0238   31.7990 H   0  0  0  0  0  0  0  0  0  0  0  0
    0.0341   -3.7333   33.9617 H   0  0  0  0  0  0  0  0  0  0  0  0
    1.1161   -1.7177   33.4078 H   0  0  0  0  0  0  0  0  0  0  0  0
    1.9481   -2.4389   32.0200 H   0  0  0  0  0  0  0  0  0  0  0  0
  1  2  1  0
  2  3  1  0
  3  4  1  0
  4  5  2  0
  5  6  1  0
  6  7  2  0
  7  8  1  0
  8  9  2  0
  2 10  1  0
 10 11  2  0
 10 12  1  0
 12 13  1  0
 13 14  1  0
 14 15  1  0
 15 16  1  0
 16 17  1  0
 17 18  1  0
 18 19  1  0
 19 20  1  0
 16 21  1  0
 21 22  1  0
 22 23  1  0
 23 24  2  0
 24 25  1  0
 25 26  2  0
 26 27  1  0
 27 28  2  0
 28 29  1  0
 29 30  2  0
 30 31  1  0
 26 32  1  0
 21 33  1  0
 33 34  1  0
  9  4  1  0
 34 12  1  0
 33 14  1  0
 20 16  1  0
 32 23  1  0
 31 27  1  0
  1 35  1  0
  1 36  1  0
  1 37  1  0
  3 38  1  0
  3 39  1  0
  5 40  1  0
  6 41  1  0
  7 42  1  0
  8 43  1  0
  9 44  1  0
 12 45  1  0
 13 46  1  0
 13 47  1  0
 14 48  1  0
 15 49  1  0
 15 50  1  0
 17 51  1  0
 17 52  1  0
 18 53  1  0
 19 54  1  0
 20 55  1  0
 20 56  1  0
 21 57  1  0
 28 58  1  0
 29 59  1  0
 30 60  1  0
 31 61  1  0
 33 62  1  0
 34 63  1  0
 34 64  1  0
M  END
>  <Energy>  (826) 
159.14398190941372

>  <compound_id>  (826) 
3757

>  <target_id>  (826) 
1

>  <reference_id>  (826) 
129

>  <inspiration_ids>  (826) 
[129, 194]

>  <energy_score>  (826) 
-7.629759011995816

>  <distance_score>  (826) 
1.9220107621838838

>  <path>  (826) 
/opt/xchem-fragalysis-2/maxwin/BulkDock/SCRATCH/505734/C3757-P129/C3757-P129.minimised.mol

>  <scratch_subdir>  (826) 
/opt/xchem-fragalysis-2/maxwin/BulkDock/SCRATCH/505734/C3757-P129

>  <fragmenstein_runtime>  (826) 
7.723780632019043

>  <fragmenstein_outcome>  (826) 
too moved

>  <fragmenstein_mode>  (826) 
expansion

>  <fragmenstein_error>  (826) 


$$$$
C3757-P194
     RDKit          3D

 64 69  0  0  0  0  0  0  0  0999 V2000
    6.0408   -3.4441   34.6822 C   0  0  0  0  0  0  0  0  0  0  0  0
    4.9059   -2.5074   34.3503 N   0  0  0  0  0  0  0  0  0  0  0  0
    5.8176   -1.5558   35.0844 C   0  0  0  0  0  0  0  0  0  0  0  0
    5.0758   -0.2169   35.1539 C   0  0  0  0  0  0  0  0  0  0  0  0
    5.3397    0.7939   34.2177 C   0  0  0  0  0  0  0  0  0  0  0  0
    4.6601    2.0107   34.2814 C   0  0  0  0  0  0  0  0  0  0  0  0
    3.6971    2.2226   35.2662 C   0  0  0  0  0  0  0  0  0  0  0  0
    3.4108    1.2176   36.1884 C   0  0  0  0  0  0  0  0  0  0  0  0
    4.0939    0.0015   36.1323 C   0  0  0  0  0  0  0  0  0  0  0  0
    4.5405   -2.5880   32.8876 C   0  0  0  0  0  0  0  0  0  0  0  0
    4.9446   -1.9763   31.9671 O   0  0  0  0  0  0  0  0  0  0  0  0
    3.3860   -3.5866   32.7030 C   0  0  0  0  0  0  0  0  0  0  0  0
    2.9972   -4.5300   33.8372 C   0  0  0  0  0  0  0  0  0  0  0  0
    1.5818   -4.9441   33.5063 C   0  0  0  0  0  0  0  0  0  0  0  0
    1.4923   -6.0550   32.4749 C   0  0  0  0  0  0  0  0  0  0  0  0
    0.0973   -5.8558   31.8754 C   0  0  0  0  0  0  0  0  0  0  0  0
   -0.0504   -6.6588   30.5936 C   0  0  0  0  0  0  0  0  0  0  0  0
   -0.3887   -7.9760   31.0909 N   0  0  0  0  0  0  0  0  0  0  0  0
   -1.2874   -7.8087   32.1807 N   0  0  0  0  0  0  0  0  0  0  0  0
   -0.9313   -6.5237   32.8073 C   0  0  0  0  0  0  0  0  0  0  0  0
    0.0884   -4.3104   31.6699 C   0  0  0  0  0  0  0  0  0  0  0  0
   -1.5657   -3.5480   31.5898 S   0  0  0  0  0  0  0  0  0  0  0  0
   -1.2527   -2.0849   30.7339 C   0  0  0  0  0  0  0  0  0  0  0  0
   -1.9892   -1.6042   29.7588 N   0  0  0  0  0  0  0  0  0  0  0  0
   -1.4450   -0.3748   29.4307 N   0  0  0  0  0  0  0  0  0  0  0  0
   -0.4253   -0.1989   30.2431 C   0  0  0  0  0  0  0  0  0  0  0  0
    0.3865    0.9502   30.3575 C   0  0  0  0  0  0  0  0  0  0  0  0
    0.3751    2.1537   29.6882 C   0  0  0  0  0  0  0  0  0  0  0  0
    1.3689    2.9684   30.2836 C   0  0  0  0  0  0  0  0  0  0  0  0
    1.9645    2.2260   31.2804 C   0  0  0  0  0  0  0  0  0  0  0  0
    1.3883    0.9952   31.2947 N   0  0  0  0  0  0  0  0  0  0  0  0
   -0.2404   -1.2591   31.0848 O   0  0  0  0  0  0  0  0  0  0  0  0
    0.9203   -3.7370   32.8436 C   0  0  0  0  0  0  0  0  0  0  0  0
    2.0851   -2.8188   32.4398 C   0  0  0  0  0  0  0  0  0  0  0  0
    5.7531   -4.4076   34.2375 H   0  0  0  0  0  0  0  0  0  0  0  0
    6.1405   -3.6898   35.7503 H   0  0  0  0  0  0  0  0  0  0  0  0
    6.9909   -3.2356   34.1638 H   0  0  0  0  0  0  0  0  0  0  0  0
    6.7489   -1.3291   34.5387 H   0  0  0  0  0  0  0  0  0  0  0  0
    6.0098   -1.8057   36.1415 H   0  0  0  0  0  0  0  0  0  0  0  0
    6.0707    0.6359   33.4269 H   0  0  0  0  0  0  0  0  0  0  0  0
    4.8783    2.7913   33.5567 H   0  0  0  0  0  0  0  0  0  0  0  0
    3.1667    3.1704   35.3108 H   0  0  0  0  0  0  0  0  0  0  0  0
    2.6548    1.3817   36.9519 H   0  0  0  0  0  0  0  0  0  0  0  0
    3.8548   -0.7771   36.8527 H   0  0  0  0  0  0  0  0  0  0  0  0
    3.6445   -4.1863   31.8204 H   0  0  0  0  0  0  0  0  0  0  0  0
    2.9974   -4.0184   34.8065 H   0  0  0  0  0  0  0  0  0  0  0  0
    3.6735   -5.3872   33.9138 H   0  0  0  0  0  0  0  0  0  0  0  0
    1.0492   -5.2318   34.4204 H   0  0  0  0  0  0  0  0  0  0  0  0
    2.2629   -5.9545   31.7045 H   0  0  0  0  0  0  0  0  0  0  0  0
    1.6225   -7.0218   32.9631 H   0  0  0  0  0  0  0  0  0  0  0  0
    0.8689   -6.6842   30.0016 H   0  0  0  0  0  0  0  0  0  0  0  0
   -0.8421   -6.2778   29.9546 H   0  0  0  0  0  0  0  0  0  0  0  0
   -0.6219   -8.6667   30.3772 H   0  0  0  0  0  0  0  0  0  0  0  0
   -2.2734   -7.8019   31.9074 H   0  0  0  0  0  0  0  0  0  0  0  0
   -1.8176   -5.9208   32.9460 H   0  0  0  0  0  0  0  0  0  0  0  0
   -0.5427   -6.7251   33.8110 H   0  0  0  0  0  0  0  0  0  0  0  0
    0.5940   -4.0976   30.7188 H   0  0  0  0  0  0  0  0  0  0  0  0
   -0.2979    2.4294   28.8843 H   0  0  0  0  0  0  0  0  0  0  0  0
    1.6127    3.9895   30.0180 H   0  0  0  0  0  0  0  0  0  0  0  0
    2.7618    2.4758   31.9661 H   0  0  0  0  0  0  0  0  0  0  0  0
    1.6397    0.2403   31.9205 H   0  0  0  0  0  0  0  0  0  0  0  0
    0.2933   -3.2166   33.5788 H   0  0  0  0  0  0  0  0  0  0  0  0
    2.0495   -1.9080   33.0519 H   0  0  0  0  0  0  0  0  0  0  0  0
    2.0343   -2.4937   31.3956 H   0  0  0  0  0  0  0  0  0  0  0  0
  1  2  1  0
  2  3  1  0
  3  4  1  0
  4  5  2  0
  5  6  1  0
  6  7  2  0
  7  8  1  0
  8  9  2  0
  2 10  1  0
 10 11  2  0
 10 12  1  0
 12 13  1  0
 13 14  1  0
 14 15  1  0
 15 16  1  0
 16 17  1  0
 17 18  1  0
 18 19  1  0
 19 20  1  0
 16 21  1  0
 21 22  1  0
 22 23  1  0
 23 24  2  0
 24 25  1  0
 25 26  2  0
 26 27  1  0
 27 28  2  0
 28 29  1  0
 29 30  2  0
 30 31  1  0
 26 32  1  0
 21 33  1  0
 33 34  1  0
  9  4  1  0
 34 12  1  0
 33 14  1  0
 20 16  1  0
 32 23  1  0
 31 27  1  0
  1 35  1  0
  1 36  1  0
  1 37  1  0
  3 38  1  0
  3 39  1  0
  5 40  1  0
  6 41  1  0
  7 42  1  0
  8 43  1  0
  9 44  1  0
 12 45  1  0
 13 46  1  0
 13 47  1  0
 14 48  1  0
 15 49  1  0
 15 50  1  0
 17 51  1  0
 17 52  1  0
 18 53  1  0
 19 54  1  0
 20 55  1  0
 20 56  1  0
 21 57  1  0
 28 58  1  0
 29 59  1  0
 30 60  1  0
 31 61  1  0
 33 62  1  0
 34 63  1  0
 34 64  1  0
M  END
>  <Energy>  (827) 
166.02563752384123

>  <compound_id>  (827) 
3757

>  <target_id>  (827) 
1

>  <reference_id>  (827) 
194

>  <inspiration_ids>  (827) 
[129, 194]

>  <energy_score>  (827) 
-0.7481033975683431

>  <distance_score>  (827) 
1.8456688129004875

>  <path>  (827) 
/opt/xchem-fragalysis-2/maxwin/BulkDock/SCRATCH/505734/C3757-P194/C3757-P194.minimised.mol

>  <scratch_subdir>  (827) 
/opt/xchem-fragalysis-2/maxwin/BulkDock/SCRATCH/505734/C3757-P194

>  <fragmenstein_runtime>  (827) 
8.048758506774902

>  <fragmenstein_outcome>  (827) 
too moved

>  <fragmenstein_mode>  (827) 
expansion

>  <fragmenstein_error>  (827) 


$$$$
C3758-P129
     RDKit          3D

 52 56  0  0  0  0  0  0  0  0999 V2000
    4.6863   -0.7836   27.5927 C   0  0  0  0  0  0  0  0  0  0  0  0
    3.6399   -0.6521   28.6460 N   0  0  0  0  0  0  0  0  0  0  0  0
    4.6119   -1.5826   29.4137 C   0  0  0  0  0  0  0  0  0  0  0  0
    4.0905   -2.0533   30.7796 C   0  0  0  0  0  0  0  0  0  0  0  0
    3.4090   -3.2693   30.9146 C   0  0  0  0  0  0  0  0  0  0  0  0
    2.9809   -3.7047   32.1721 C   0  0  0  0  0  0  0  0  0  0  0  0
    3.2006   -2.9199   33.3014 C   0  0  0  0  0  0  0  0  0  0  0  0
    3.8682   -1.7051   33.1805 C   0  0  0  0  0  0  0  0  0  0  0  0
    4.3215   -1.2801   31.9311 C   0  0  0  0  0  0  0  0  0  0  0  0
    3.2709    0.4918   29.4818 C   0  0  0  0  0  0  0  0  0  0  0  0
    3.7709    1.5526   29.5827 O   0  0  0  0  0  0  0  0  0  0  0  0
    2.0420   -0.0413   30.0797 N   0  0  0  0  0  0  0  0  0  0  0  0
    1.1744    0.5081   30.9954 C   0  0  0  0  0  0  0  0  0  0  0  0
    1.5050    1.6025   31.6997 C   0  0  0  0  0  0  0  0  0  0  0  0
    0.7883    2.2114   32.7923 C   0  0  0  0  0  0  0  0  0  0  0  0
   -0.0792    1.5648   33.5793 C   0  0  0  0  0  0  0  0  0  0  0  0
   -0.6209    2.0655   34.7551 N   0  0  0  0  0  0  0  0  0  0  0  0
   -1.3661    1.0936   35.4103 N   0  0  0  0  0  0  0  0  0  0  0  0
   -1.3499    0.0949   34.5602 C   0  0  0  0  0  0  0  0  0  0  0  0
   -0.5881    0.2789   33.4171 N   0  0  0  0  0  0  0  0  0  0  0  0
   -0.9074   -0.3270   32.2421 N   0  0  0  0  0  0  0  0  0  0  0  0
   -0.1495   -0.1927   31.2051 C   0  0  0  0  0  0  0  0  0  0  0  0
   -0.8055   -0.8938   29.7172 S   0  0  0  0  0  0  0  0  0  0  0  0
   -0.3352   -2.5299   30.0189 C   0  0  0  0  0  0  0  0  0  0  0  0
    0.4261   -3.2289   29.2009 N   0  0  0  0  0  0  0  0  0  0  0  0
    0.5137   -4.4969   29.7315 N   0  0  0  0  0  0  0  0  0  0  0  0
   -0.1747   -4.4814   30.8554 C   0  0  0  0  0  0  0  0  0  0  0  0
   -0.3993   -5.6362   31.6547 C   0  0  0  0  0  0  0  0  0  0  0  0
   -0.7312   -5.7621   32.9883 C   0  0  0  0  0  0  0  0  0  0  0  0
   -0.9702   -7.1367   33.2373 C   0  0  0  0  0  0  0  0  0  0  0  0
   -0.8013   -7.8006   32.0434 C   0  0  0  0  0  0  0  0  0  0  0  0
   -0.3638   -6.8977   31.1139 N   0  0  0  0  0  0  0  0  0  0  0  0
   -0.7252   -3.2545   31.1125 O   0  0  0  0  0  0  0  0  0  0  0  0
    4.3125   -0.1265   26.7933 H   0  0  0  0  0  0  0  0  0  0  0  0
    4.7320   -1.7698   27.1101 H   0  0  0  0  0  0  0  0  0  0  0  0
    5.6595   -0.3300   27.8308 H   0  0  0  0  0  0  0  0  0  0  0  0
    4.8214   -2.5261   28.8820 H   0  0  0  0  0  0  0  0  0  0  0  0
    5.5556   -1.0632   29.6552 H   0  0  0  0  0  0  0  0  0  0  0  0
    3.2145   -3.8905   30.0423 H   0  0  0  0  0  0  0  0  0  0  0  0
    2.4734   -4.6600   32.2711 H   0  0  0  0  0  0  0  0  0  0  0  0
    2.8550   -3.2565   34.2753 H   0  0  0  0  0  0  0  0  0  0  0  0
    4.0428   -1.0893   34.0592 H   0  0  0  0  0  0  0  0  0  0  0  0
    4.8497   -0.3302   31.8589 H   0  0  0  0  0  0  0  0  0  0  0  0
    1.8676   -0.9686   29.7094 H   0  0  0  0  0  0  0  0  0  0  0  0
    2.4573    2.0935   31.5054 H   0  0  0  0  0  0  0  0  0  0  0  0
    1.0916    3.2243   33.0461 H   0  0  0  0  0  0  0  0  0  0  0  0
   -0.0995    2.7625   35.2802 H   0  0  0  0  0  0  0  0  0  0  0  0
   -1.8828   -0.8628   34.6603 H   0  0  0  0  0  0  0  0  0  0  0  0
   -0.8380   -4.9517   33.7004 H   0  0  0  0  0  0  0  0  0  0  0  0
   -1.2827   -7.5890   34.1728 H   0  0  0  0  0  0  0  0  0  0  0  0
   -0.9398   -8.8409   31.7842 H   0  0  0  0  0  0  0  0  0  0  0  0
   -0.1413   -7.1027   30.1472 H   0  0  0  0  0  0  0  0  0  0  0  0
  1  2  1  0
  2  3  1  0
  3  4  1  0
  4  5  2  0
  5  6  1  0
  6  7  2  0
  7  8  1  0
  8  9  2  0
  2 10  1  0
 10 11  2  0
 10 12  1  0
 12 13  1  0
 13 14  2  0
 14 15  1  0
 15 16  2  0
 16 17  1  0
 17 18  1  0
 18 19  2  0
 19 20  1  0
 20 21  1  0
 21 22  2  0
 22 23  1  0
 23 24  1  0
 24 25  2  0
 25 26  1  0
 26 27  2  0
 27 28  1  0
 28 29  2  0
 29 30  1  0
 30 31  2  0
 31 32  1  0
 27 33  1  0
  9  4  1  0
 22 13  1  0
 33 24  1  0
 20 16  1  0
 32 28  1  0
  1 34  1  0
  1 35  1  0
  1 36  1  0
  3 37  1  0
  3 38  1  0
  5 39  1  0
  6 40  1  0
  7 41  1  0
  8 42  1  0
  9 43  1  0
 12 44  1  0
 14 45  1  0
 15 46  1  0
 17 47  1  0
 19 48  1  0
 29 49  1  0
 30 50  1  0
 31 51  1  0
 32 52  1  0
M  END
>  <Energy>  (828) 
129.59944124724896

>  <compound_id>  (828) 
3758

>  <target_id>  (828) 
1

>  <reference_id>  (828) 
129

>  <inspiration_ids>  (828) 
[129, 195]

>  <energy_score>  (828) 
4.354848490351799

>  <distance_score>  (828) 
2.1519996978954636

>  <path>  (828) 
/opt/xchem-fragalysis-2/maxwin/BulkDock/SCRATCH/505734/C3758-P129/C3758-P129.minimised.mol

>  <scratch_subdir>  (828) 
/opt/xchem-fragalysis-2/maxwin/BulkDock/SCRATCH/505734/C3758-P129

>  <fragmenstein_runtime>  (828) 
15.753318309783936

>  <fragmenstein_outcome>  (828) 
too moved

>  <fragmenstein_mode>  (828) 
expansion

>  <fragmenstein_error>  (828) 


$$$$
C3758-P195
     RDKit          3D

 52 56  0  0  0  0  0  0  0  0999 V2000
    4.3494   -2.4796   27.7409 C   0  0  0  0  0  0  0  0  0  0  0  0
    3.3461   -1.8448   28.6420 N   0  0  0  0  0  0  0  0  0  0  0  0
    4.2009   -2.5964   29.6920 C   0  0  0  0  0  0  0  0  0  0  0  0
    3.6098   -2.5798   31.1165 C   0  0  0  0  0  0  0  0  0  0  0  0
    2.9622   -3.7051   31.6472 C   0  0  0  0  0  0  0  0  0  0  0  0
    2.5332   -3.7200   32.9773 C   0  0  0  0  0  0  0  0  0  0  0  0
    2.7265   -2.6044   33.7872 C   0  0  0  0  0  0  0  0  0  0  0  0
    3.3576   -1.4762   33.2737 C   0  0  0  0  0  0  0  0  0  0  0  0
    3.8087   -1.4697   31.9540 C   0  0  0  0  0  0  0  0  0  0  0  0
    3.1531   -0.3838   29.0326 C   0  0  0  0  0  0  0  0  0  0  0  0
    3.7831    0.5373   28.7820 O   0  0  0  0  0  0  0  0  0  0  0  0
    1.8199   -0.5033   29.8091 N   0  0  0  0  0  0  0  0  0  0  0  0
    1.0908    0.4494   30.4779 C   0  0  0  0  0  0  0  0  0  0  0  0
    1.5731    1.6872   30.6782 C   0  0  0  0  0  0  0  0  0  0  0  0
    1.0621    2.6895   31.5852 C   0  0  0  0  0  0  0  0  0  0  0  0
    0.4367    2.3796   32.7287 C   0  0  0  0  0  0  0  0  0  0  0  0
    0.1520    3.2499   33.7652 N   0  0  0  0  0  0  0  0  0  0  0  0
   -0.3519    2.5732   34.8643 N   0  0  0  0  0  0  0  0  0  0  0  0
   -0.4701    1.3463   34.4157 C   0  0  0  0  0  0  0  0  0  0  0  0
   -0.0188    1.1156   33.1227 N   0  0  0  0  0  0  0  0  0  0  0  0
   -0.6908    0.2592   32.2911 N   0  0  0  0  0  0  0  0  0  0  0  0
   -0.2129    0.0256   31.1115 C   0  0  0  0  0  0  0  0  0  0  0  0
   -1.3041   -0.8433   30.0349 S   0  0  0  0  0  0  0  0  0  0  0  0
   -0.6758   -2.4323   30.2681 C   0  0  0  0  0  0  0  0  0  0  0  0
    0.1459   -3.0029   29.4099 N   0  0  0  0  0  0  0  0  0  0  0  0
    0.3551   -4.2850   29.8531 N   0  0  0  0  0  0  0  0  0  0  0  0
   -0.3178   -4.4061   30.9793 C   0  0  0  0  0  0  0  0  0  0  0  0
   -0.4399   -5.6305   31.6909 C   0  0  0  0  0  0  0  0  0  0  0  0
   -0.7469   -5.8807   33.0130 C   0  0  0  0  0  0  0  0  0  0  0  0
   -0.9061   -7.2807   33.1510 C   0  0  0  0  0  0  0  0  0  0  0  0
   -0.7022   -7.8378   31.9087 C   0  0  0  0  0  0  0  0  0  0  0  0
   -0.3262   -6.8401   31.0534 N   0  0  0  0  0  0  0  0  0  0  0  0
   -0.9853   -3.2545   31.3157 O   0  0  0  0  0  0  0  0  0  0  0  0
    4.2105   -3.5598   27.5888 H   0  0  0  0  0  0  0  0  0  0  0  0
    4.0881   -2.0574   26.7590 H   0  0  0  0  0  0  0  0  0  0  0  0
    5.3914   -2.1433   27.8546 H   0  0  0  0  0  0  0  0  0  0  0  0
    5.1862   -2.1129   29.8155 H   0  0  0  0  0  0  0  0  0  0  0  0
    4.3234   -3.6759   29.4948 H   0  0  0  0  0  0  0  0  0  0  0  0
    2.8113   -4.5892   31.0323 H   0  0  0  0  0  0  0  0  0  0  0  0
    2.0488   -4.6039   33.3838 H   0  0  0  0  0  0  0  0  0  0  0  0
    2.3842   -2.6139   34.8189 H   0  0  0  0  0  0  0  0  0  0  0  0
    3.5115   -0.6035   33.9038 H   0  0  0  0  0  0  0  0  0  0  0  0
    4.3311   -0.5875   31.5864 H   0  0  0  0  0  0  0  0  0  0  0  0
    1.4921   -1.4624   29.7771 H   0  0  0  0  0  0  0  0  0  0  0  0
    2.5075    1.9859   30.2068 H   0  0  0  0  0  0  0  0  0  0  0  0
    1.3626    3.7156   31.3904 H   0  0  0  0  0  0  0  0  0  0  0  0
    0.6501    4.1311   33.8511 H   0  0  0  0  0  0  0  0  0  0  0  0
   -0.9060    0.4903   34.9520 H   0  0  0  0  0  0  0  0  0  0  0  0
   -0.9038   -5.1364   33.7857 H   0  0  0  0  0  0  0  0  0  0  0  0
   -1.1905   -7.8186   34.0494 H   0  0  0  0  0  0  0  0  0  0  0  0
   -0.7749   -8.8614   31.5693 H   0  0  0  0  0  0  0  0  0  0  0  0
   -0.1027   -6.9526   30.0725 H   0  0  0  0  0  0  0  0  0  0  0  0
  1  2  1  0
  2  3  1  0
  3  4  1  0
  4  5  2  0
  5  6  1  0
  6  7  2  0
  7  8  1  0
  8  9  2  0
  2 10  1  0
 10 11  2  0
 10 12  1  0
 12 13  1  0
 13 14  2  0
 14 15  1  0
 15 16  2  0
 16 17  1  0
 17 18  1  0
 18 19  2  0
 19 20  1  0
 20 21  1  0
 21 22  2  0
 22 23  1  0
 23 24  1  0
 24 25  2  0
 25 26  1  0
 26 27  2  0
 27 28  1  0
 28 29  2  0
 29 30  1  0
 30 31  2  0
 31 32  1  0
 27 33  1  0
  9  4  1  0
 22 13  1  0
 33 24  1  0
 20 16  1  0
 32 28  1  0
  1 34  1  0
  1 35  1  0
  1 36  1  0
  3 37  1  0
  3 38  1  0
  5 39  1  0
  6 40  1  0
  7 41  1  0
  8 42  1  0
  9 43  1  0
 12 44  1  0
 14 45  1  0
 15 46  1  0
 17 47  1  0
 19 48  1  0
 29 49  1  0
 30 50  1  0
 31 51  1  0
 32 52  1  0
M  END
>  <Energy>  (829) 
149.44683196120118

>  <compound_id>  (829) 
3758

>  <target_id>  (829) 
1

>  <reference_id>  (829) 
195

>  <inspiration_ids>  (829) 
[129, 195]

>  <energy_score>  (829) 
22.083559938778194

>  <distance_score>  (829) 
1.9195239272850382

>  <path>  (829) 
/opt/xchem-fragalysis-2/maxwin/BulkDock/SCRATCH/505734/C3758-P195/C3758-P195.minimised.mol

>  <scratch_subdir>  (829) 
/opt/xchem-fragalysis-2/maxwin/BulkDock/SCRATCH/505734/C3758-P195

>  <fragmenstein_runtime>  (829) 
13.64648962020874

>  <fragmenstein_outcome>  (829) 
too moved

>  <fragmenstein_mode>  (829) 
expansion

>  <fragmenstein_error>  (829) 


$$$$
C3759-P129
     RDKit          3D

 54 58  0  0  0  0  0  0  0  0999 V2000
    5.8405   -1.8004   33.4007 C   0  0  0  0  0  0  0  0  0  0  0  0
    4.5653   -2.4992   33.1019 N   0  0  0  0  0  0  0  0  0  0  0  0
    3.9767   -1.1486   33.5282 C   0  0  0  0  0  0  0  0  0  0  0  0
    3.1032   -1.3961   34.7681 C   0  0  0  0  0  0  0  0  0  0  0  0
    1.8856   -0.7231   34.9088 C   0  0  0  0  0  0  0  0  0  0  0  0
    1.0781   -0.9431   36.0276 C   0  0  0  0  0  0  0  0  0  0  0  0
    1.4769   -1.8310   37.0238 C   0  0  0  0  0  0  0  0  0  0  0  0
    2.6908   -2.4977   36.9063 C   0  0  0  0  0  0  0  0  0  0  0  0
    3.4992   -2.2793   35.7893 C   0  0  0  0  0  0  0  0  0  0  0  0
    3.9887   -2.9181   31.8238 C   0  0  0  0  0  0  0  0  0  0  0  0
    4.3567   -2.7223   30.7230 O   0  0  0  0  0  0  0  0  0  0  0  0
    2.8548   -3.7065   32.3231 N   0  0  0  0  0  0  0  0  0  0  0  0
    1.9647   -4.5048   31.6666 C   0  0  0  0  0  0  0  0  0  0  0  0
    2.2778   -4.9815   30.3332 C   0  0  0  0  0  0  0  0  0  0  0  0
    1.5513   -5.9417   29.7418 C   0  0  0  0  0  0  0  0  0  0  0  0
    0.4544   -6.5226   30.4279 C   0  0  0  0  0  0  0  0  0  0  0  0
   -0.3647   -7.5128   30.1388 N   0  0  0  0  0  0  0  0  0  0  0  0
   -1.2365   -7.6626   31.1906 N   0  0  0  0  0  0  0  0  0  0  0  0
   -0.9211   -6.7626   32.0945 C   0  0  0  0  0  0  0  0  0  0  0  0
    0.1339   -5.9979   31.6669 N   0  0  0  0  0  0  0  0  0  0  0  0
    0.8312   -4.9366   32.2806 C   0  0  0  0  0  0  0  0  0  0  0  0
    0.2629   -4.3144   33.4011 N   0  0  0  0  0  0  0  0  0  0  0  0
   -0.2927   -3.0792   33.2063 C   0  0  0  0  0  0  0  0  0  0  0  0
    0.0706   -2.0882   32.4175 N   0  0  0  0  0  0  0  0  0  0  0  0
   -0.8940   -1.1080   32.4749 N   0  0  0  0  0  0  0  0  0  0  0  0
   -1.8571   -1.5471   33.2532 C   0  0  0  0  0  0  0  0  0  0  0  0
   -3.1223   -0.9215   33.5614 C   0  0  0  0  0  0  0  0  0  0  0  0
   -3.1589    0.2907   34.2538 C   0  0  0  0  0  0  0  0  0  0  0  0
   -4.3835    0.8582   34.6126 C   0  0  0  0  0  0  0  0  0  0  0  0
   -5.5740    0.2232   34.2602 C   0  0  0  0  0  0  0  0  0  0  0  0
   -5.5411   -0.9786   33.5528 C   0  0  0  0  0  0  0  0  0  0  0  0
   -4.3192   -1.5512   33.2081 C   0  0  0  0  0  0  0  0  0  0  0  0
   -1.4872   -2.7552   33.7787 N   0  0  0  0  0  0  0  0  0  0  0  0
    6.0948   -1.0181   32.6679 H   0  0  0  0  0  0  0  0  0  0  0  0
    6.0031   -1.5338   34.4553 H   0  0  0  0  0  0  0  0  0  0  0  0
    6.6016   -2.5695   33.2044 H   0  0  0  0  0  0  0  0  0  0  0  0
    3.2994   -0.8404   32.7162 H   0  0  0  0  0  0  0  0  0  0  0  0
    4.5769   -0.2405   33.7291 H   0  0  0  0  0  0  0  0  0  0  0  0
    1.5390   -0.0413   34.1328 H   0  0  0  0  0  0  0  0  0  0  0  0
    0.1313   -0.4165   36.1154 H   0  0  0  0  0  0  0  0  0  0  0  0
    0.8462   -1.9932   37.8937 H   0  0  0  0  0  0  0  0  0  0  0  0
    3.0127   -3.1849   37.6843 H   0  0  0  0  0  0  0  0  0  0  0  0
    4.4416   -2.8178   35.7231 H   0  0  0  0  0  0  0  0  0  0  0  0
    2.7838   -3.5885   33.3259 H   0  0  0  0  0  0  0  0  0  0  0  0
    3.1245   -4.5575   29.8025 H   0  0  0  0  0  0  0  0  0  0  0  0
    1.8427   -6.3043   28.7662 H   0  0  0  0  0  0  0  0  0  0  0  0
   -1.4039   -6.6436   33.0513 H   0  0  0  0  0  0  0  0  0  0  0  0
   -0.2746   -4.9519   33.9792 H   0  0  0  0  0  0  0  0  0  0  0  0
   -2.2319    0.7892   34.5318 H   0  0  0  0  0  0  0  0  0  0  0  0
   -4.4073    1.7923   35.1693 H   0  0  0  0  0  0  0  0  0  0  0  0
   -6.5295    0.6625   34.5385 H   0  0  0  0  0  0  0  0  0  0  0  0
   -6.4704   -1.4698   33.2714 H   0  0  0  0  0  0  0  0  0  0  0  0
   -4.3134   -2.4852   32.6528 H   0  0  0  0  0  0  0  0  0  0  0  0
   -2.0683   -3.3367   34.3687 H   0  0  0  0  0  0  0  0  0  0  0  0
  1  2  1  0
  2  3  1  0
  3  4  1  0
  4  5  2  0
  5  6  1  0
  6  7  2  0
  7  8  1  0
  8  9  2  0
  2 10  1  0
 10 11  2  0
 10 12  1  0
 12 13  1  0
 13 14  1  0
 14 15  2  0
 15 16  1  0
 16 17  2  0
 17 18  1  0
 18 19  2  0
 19 20  1  0
 20 21  1  0
 21 22  1  0
 22 23  1  0
 23 24  2  0
 24 25  1  0
 25 26  2  0
 26 27  1  0
 27 28  2  0
 28 29  1  0
 29 30  2  0
 30 31  1  0
 31 32  2  0
 26 33  1  0
  9  4  1  0
 21 13  2  0
 33 23  1  0
 20 16  1  0
 32 27  1  0
  1 34  1  0
  1 35  1  0
  1 36  1  0
  3 37  1  0
  3 38  1  0
  5 39  1  0
  6 40  1  0
  7 41  1  0
  8 42  1  0
  9 43  1  0
 12 44  1  0
 14 45  1  0
 15 46  1  0
 19 47  1  0
 22 48  1  0
 28 49  1  0
 29 50  1  0
 30 51  1  0
 31 52  1  0
 32 53  1  0
 33 54  1  0
M  END
>  <Energy>  (830) 
89.252874062560082

>  <compound_id>  (830) 
3759

>  <target_id>  (830) 
1

>  <reference_id>  (830) 
129

>  <inspiration_ids>  (830) 
[129, 196]

>  <energy_score>  (830) 
23.798544290357427

>  <distance_score>  (830) 
3.7475872658150355

>  <path>  (830) 
/opt/xchem-fragalysis-2/maxwin/BulkDock/SCRATCH/505734/C3759-P129/C3759-P129.minimised.mol

>  <scratch_subdir>  (830) 
/opt/xchem-fragalysis-2/maxwin/BulkDock/SCRATCH/505734/C3759-P129

>  <fragmenstein_runtime>  (830) 
7.415868282318115

>  <fragmenstein_outcome>  (830) 
too moved

>  <fragmenstein_mode>  (830) 
expansion

>  <fragmenstein_error>  (830) 


$$$$
C3759-P196
     RDKit          3D

 54 58  0  0  0  0  0  0  0  0999 V2000
    5.8571   -2.6775   30.9811 C   0  0  0  0  0  0  0  0  0  0  0  0
    4.5898   -3.2614   31.4880 N   0  0  0  0  0  0  0  0  0  0  0  0
    4.3971   -1.8295   32.0186 C   0  0  0  0  0  0  0  0  0  0  0  0
    4.2341   -1.9452   33.5450 C   0  0  0  0  0  0  0  0  0  0  0  0
    3.2986   -1.1546   34.2162 C   0  0  0  0  0  0  0  0  0  0  0  0
    3.1187   -1.2826   35.5972 C   0  0  0  0  0  0  0  0  0  0  0  0
    3.8812   -2.1873   36.3299 C   0  0  0  0  0  0  0  0  0  0  0  0
    4.8423   -2.9560   35.6838 C   0  0  0  0  0  0  0  0  0  0  0  0
    5.0217   -2.8315   34.3044 C   0  0  0  0  0  0  0  0  0  0  0  0
    3.3907   -3.6987   30.7697 C   0  0  0  0  0  0  0  0  0  0  0  0
    3.1125   -3.6097   29.6303 O   0  0  0  0  0  0  0  0  0  0  0  0
    2.6823   -4.3534   31.8725 N   0  0  0  0  0  0  0  0  0  0  0  0
    1.5549   -5.1176   31.8787 C   0  0  0  0  0  0  0  0  0  0  0  0
    1.1850   -5.8623   30.6800 C   0  0  0  0  0  0  0  0  0  0  0  0
    0.2277   -6.8069   30.7050 C   0  0  0  0  0  0  0  0  0  0  0  0
   -0.4619   -7.0610   31.9085 C   0  0  0  0  0  0  0  0  0  0  0  0
   -1.3910   -7.9280   32.2242 N   0  0  0  0  0  0  0  0  0  0  0  0
   -1.7203   -7.7082   33.5406 N   0  0  0  0  0  0  0  0  0  0  0  0
   -1.0181   -6.6903   33.9789 C   0  0  0  0  0  0  0  0  0  0  0  0
   -0.1869   -6.2471   32.9920 N   0  0  0  0  0  0  0  0  0  0  0  0
    0.7788   -5.2279   32.9881 C   0  0  0  0  0  0  0  0  0  0  0  0
    0.6998   -4.2571   33.9977 N   0  0  0  0  0  0  0  0  0  0  0  0
    0.1169   -3.0483   33.7079 C   0  0  0  0  0  0  0  0  0  0  0  0
    0.2640   -1.8739   34.2729 N   0  0  0  0  0  0  0  0  0  0  0  0
   -0.1772   -0.9179   33.3793 N   0  0  0  0  0  0  0  0  0  0  0  0
   -0.5982   -1.5436   32.2979 C   0  0  0  0  0  0  0  0  0  0  0  0
   -0.7812   -1.0091   30.9610 C   0  0  0  0  0  0  0  0  0  0  0  0
   -1.3852   -1.7569   29.9401 C   0  0  0  0  0  0  0  0  0  0  0  0
   -1.4156   -1.2717   28.6359 C   0  0  0  0  0  0  0  0  0  0  0  0
   -0.8501   -0.0376   28.3485 C   0  0  0  0  0  0  0  0  0  0  0  0
   -0.2555    0.7189   29.3508 C   0  0  0  0  0  0  0  0  0  0  0  0
   -0.2252    0.2373   30.6550 C   0  0  0  0  0  0  0  0  0  0  0  0
   -0.6597   -2.8765   32.5910 N   0  0  0  0  0  0  0  0  0  0  0  0
    6.3369   -3.5223   30.4659 H   0  0  0  0  0  0  0  0  0  0  0  0
    5.7153   -1.9478   30.1680 H   0  0  0  0  0  0  0  0  0  0  0  0
    6.5838   -2.3952   31.7569 H   0  0  0  0  0  0  0  0  0  0  0  0
    3.4408   -1.4681   31.6097 H   0  0  0  0  0  0  0  0  0  0  0  0
    5.1102   -0.9997   31.8524 H   0  0  0  0  0  0  0  0  0  0  0  0
    2.6693   -0.4508   33.6726 H   0  0  0  0  0  0  0  0  0  0  0  0
    2.3620   -0.6777   36.0939 H   0  0  0  0  0  0  0  0  0  0  0  0
    3.7330   -2.2782   37.4028 H   0  0  0  0  0  0  0  0  0  0  0  0
    5.4568   -3.6483   36.2537 H   0  0  0  0  0  0  0  0  0  0  0  0
    5.7830   -3.4450   33.8273 H   0  0  0  0  0  0  0  0  0  0  0  0
    3.1682   -4.1614   32.7395 H   0  0  0  0  0  0  0  0  0  0  0  0
    1.7086   -5.6543   29.7506 H   0  0  0  0  0  0  0  0  0  0  0  0
   -0.0341   -7.3987   29.8398 H   0  0  0  0  0  0  0  0  0  0  0  0
   -1.0586   -6.2603   34.9697 H   0  0  0  0  0  0  0  0  0  0  0  0
    1.5860   -4.1058   34.4829 H   0  0  0  0  0  0  0  0  0  0  0  0
   -1.8293   -2.7295   30.1200 H   0  0  0  0  0  0  0  0  0  0  0  0
   -1.8744   -1.8569   27.8419 H   0  0  0  0  0  0  0  0  0  0  0  0
   -0.8666    0.3348   27.3346 H   0  0  0  0  0  0  0  0  0  0  0  0
    0.1891    1.6813   29.1070 H   0  0  0  0  0  0  0  0  0  0  0  0
    0.2648    0.8291   31.4258 H   0  0  0  0  0  0  0  0  0  0  0  0
   -0.8841   -3.5986   31.9318 H   0  0  0  0  0  0  0  0  0  0  0  0
  1  2  1  0
  2  3  1  0
  3  4  1  0
  4  5  2  0
  5  6  1  0
  6  7  2  0
  7  8  1  0
  8  9  2  0
  2 10  1  0
 10 11  2  0
 10 12  1  0
 12 13  1  0
 13 14  1  0
 14 15  2  0
 15 16  1  0
 16 17  2  0
 17 18  1  0
 18 19  2  0
 19 20  1  0
 20 21  1  0
 21 22  1  0
 22 23  1  0
 23 24  2  0
 24 25  1  0
 25 26  2  0
 26 27  1  0
 27 28  2  0
 28 29  1  0
 29 30  2  0
 30 31  1  0
 31 32  2  0
 26 33  1  0
  9  4  1  0
 21 13  2  0
 33 23  1  0
 20 16  1  0
 32 27  1  0
  1 34  1  0
  1 35  1  0
  1 36  1  0
  3 37  1  0
  3 38  1  0
  5 39  1  0
  6 40  1  0
  7 41  1  0
  8 42  1  0
  9 43  1  0
 12 44  1  0
 14 45  1  0
 15 46  1  0
 19 47  1  0
 22 48  1  0
 28 49  1  0
 29 50  1  0
 30 51  1  0
 31 52  1  0
 32 53  1  0
 33 54  1  0
M  END
>  <Energy>  (831) 
90.538667304005926

>  <compound_id>  (831) 
3759

>  <target_id>  (831) 
1

>  <reference_id>  (831) 
196

>  <inspiration_ids>  (831) 
[129, 196]

>  <energy_score>  (831) 
25.08433753180418

>  <distance_score>  (831) 
3.1354780003553357

>  <path>  (831) 
/opt/xchem-fragalysis-2/maxwin/BulkDock/SCRATCH/505734/C3759-P196/C3759-P196.minimised.mol

>  <scratch_subdir>  (831) 
/opt/xchem-fragalysis-2/maxwin/BulkDock/SCRATCH/505734/C3759-P196

>  <fragmenstein_runtime>  (831) 
11.238792181015015

>  <fragmenstein_outcome>  (831) 
too moved

>  <fragmenstein_mode>  (831) 
expansion

>  <fragmenstein_error>  (831) 


$$$$
C3760-P129
     RDKit          3D

 61 65  0  0  0  0  0  0  0  0999 V2000
   -2.5643   -8.6216   33.1581 C   0  0  0  0  0  0  0  0  0  0  0  0
   -2.6838   -7.8389   31.9532 N   0  0  0  0  0  0  0  0  0  0  0  0
   -4.2948   -8.6982   31.8471 C   0  0  0  0  0  0  0  0  0  0  0  0
   -5.4906  -10.2540   31.5843 C   0  0  0  0  0  0  0  0  0  0  0  0
   -6.1427  -11.3666   32.8070 C   0  0  0  0  0  0  0  0  0  0  0  0
   -7.5581  -11.8293   32.8793 C   0  0  0  0  0  0  0  0  0  0  0  0
   -8.5299  -11.1615   31.9537 C   0  0  0  0  0  0  0  0  0  0  0  0
   -8.1400  -10.3929   30.5166 C   0  0  0  0  0  0  0  0  0  0  0  0
   -6.6380  -10.0718   30.1803 C   0  0  0  0  0  0  0  0  0  0  0  0
   -1.4690   -7.9817   31.1477 C   0  0  0  0  0  0  0  0  0  0  0  0
   -1.2075   -8.7498   30.2966 O   0  0  0  0  0  0  0  0  0  0  0  0
   -0.7125   -6.8155   31.6514 N   0  0  0  0  0  0  0  0  0  0  0  0
    0.4565   -6.2470   31.2117 C   0  0  0  0  0  0  0  0  0  0  0  0
    0.9909   -6.6789   29.9408 C   0  0  0  0  0  0  0  0  0  0  0  0
    1.9878   -6.0389   29.2976 C   0  0  0  0  0  0  0  0  0  0  0  0
    2.6185   -4.9409   29.9157 C   0  0  0  0  0  0  0  0  0  0  0  0
    3.6693   -4.2227   29.5913 N   0  0  0  0  0  0  0  0  0  0  0  0
    3.8896   -3.3313   30.6152 N   0  0  0  0  0  0  0  0  0  0  0  0
    2.9630   -3.5342   31.5267 C   0  0  0  0  0  0  0  0  0  0  0  0
    2.1537   -4.5720   31.1589 N   0  0  0  0  0  0  0  0  0  0  0  0
    1.0925   -5.2128   31.8045 C   0  0  0  0  0  0  0  0  0  0  0  0
    0.6126   -4.7393   33.0504 N   0  0  0  0  0  0  0  0  0  0  0  0
    0.5690   -5.6257   34.2297 C   0  0  0  0  0  0  0  0  0  0  0  0
   -0.5809   -5.3154   35.1682 C   0  0  0  0  0  0  0  0  0  0  0  0
   -0.7384   -3.8419   35.5677 C   0  0  0  0  0  0  0  0  0  0  0  0
   -0.4944   -2.7842   34.4734 C   0  0  0  0  0  0  0  0  0  0  0  0
    0.8347   -2.0273   34.5700 C   0  0  0  0  0  0  0  0  0  0  0  0
    0.9446   -0.7693   33.9509 C   0  0  0  0  0  0  0  0  0  0  0  0
    2.1562   -0.0750   33.9254 C   0  0  0  0  0  0  0  0  0  0  0  0
    3.2826   -0.6134   34.5342 C   0  0  0  0  0  0  0  0  0  0  0  0
    3.1926   -1.8427   35.1760 C   0  0  0  0  0  0  0  0  0  0  0  0
    1.9811   -2.5415   35.1965 C   0  0  0  0  0  0  0  0  0  0  0  0
   -0.5607   -3.5296   32.8214 S   0  0  0  0  0  0  0  0  0  0  0  0
   -1.8101   -4.2140   32.5755 O   0  0  0  0  0  0  0  0  0  0  0  0
   -0.0781   -2.6097   31.8144 O   0  0  0  0  0  0  0  0  0  0  0  0
   -1.7740   -8.1032   33.7278 H   0  0  0  0  0  0  0  0  0  0  0  0
   -2.0393   -9.4928   32.8269 H   0  0  0  0  0  0  0  0  0  0  0  0
   -3.3132   -8.7174   33.9518 H   0  0  0  0  0  0  0  0  0  0  0  0
   -4.1442   -8.5284   30.8375 H   0  0  0  0  0  0  0  0  0  0  0  0
   -4.9914   -8.0729   32.3115 H   0  0  0  0  0  0  0  0  0  0  0  0
   -6.3667  -12.3152   32.1604 H   0  0  0  0  0  0  0  0  0  0  0  0
   -7.8990  -12.5863   33.5308 H   0  0  0  0  0  0  0  0  0  0  0  0
   -9.5713  -11.2354   32.0732 H   0  0  0  0  0  0  0  0  0  0  0  0
   -8.9668  -10.0121   29.8699 H   0  0  0  0  0  0  0  0  0  0  0  0
   -6.5496   -9.4188   29.3111 H   0  0  0  0  0  0  0  0  0  0  0  0
   -1.2759   -6.3239   32.3406 H   0  0  0  0  0  0  0  0  0  0  0  0
    0.6128   -7.6156   29.5546 H   0  0  0  0  0  0  0  0  0  0  0  0
    2.3932   -6.3946   28.3587 H   0  0  0  0  0  0  0  0  0  0  0  0
    2.8409   -2.9772   32.4405 H   0  0  0  0  0  0  0  0  0  0  0  0
    0.5182   -6.6824   33.9475 H   0  0  0  0  0  0  0  0  0  0  0  0
    1.5165   -5.5081   34.7670 H   0  0  0  0  0  0  0  0  0  0  0  0
   -1.5048   -5.6724   34.7062 H   0  0  0  0  0  0  0  0  0  0  0  0
   -0.4730   -5.9156   36.0805 H   0  0  0  0  0  0  0  0  0  0  0  0
   -0.1291   -3.6373   36.4560 H   0  0  0  0  0  0  0  0  0  0  0  0
   -1.7656   -3.7182   35.9330 H   0  0  0  0  0  0  0  0  0  0  0  0
   -1.3102   -2.0514   34.5101 H   0  0  0  0  0  0  0  0  0  0  0  0
    0.0890   -0.3273   33.4400 H   0  0  0  0  0  0  0  0  0  0  0  0
    2.2188    0.8838   33.4158 H   0  0  0  0  0  0  0  0  0  0  0  0
    4.2263   -0.0749   34.5083 H   0  0  0  0  0  0  0  0  0  0  0  0
    4.0712   -2.2625   35.6602 H   0  0  0  0  0  0  0  0  0  0  0  0
    1.9702   -3.4977   35.7094 H   0  0  0  0  0  0  0  0  0  0  0  0
  1  2  1  0
  2  3  1  0
  3  4  1  0
  4  5  2  0
  5  6  1  0
  6  7  2  0
  7  8  1  0
  8  9  2  0
  2 10  1  0
 10 11  2  0
 10 12  1  0
 12 13  1  0
 13 14  1  0
 14 15  2  0
 15 16  1  0
 16 17  2  0
 17 18  1  0
 18 19  2  0
 19 20  1  0
 20 21  1  0
 21 22  1  0
 22 23  1  0
 23 24  1  0
 24 25  1  0
 25 26  1  0
 26 27  1  0
 27 28  2  0
 28 29  1  0
 29 30  2  0
 30 31  1  0
 31 32  2  0
 26 33  1  0
 33 34  2  0
 33 35  2  0
  9  4  1  0
 21 13  2  0
 33 22  1  0
 20 16  1  0
 32 27  1  0
  1 36  1  0
  1 37  1  0
  1 38  1  0
  3 39  1  0
  3 40  1  0
  5 41  1  0
  6 42  1  0
  7 43  1  0
  8 44  1  0
  9 45  1  0
 12 46  1  0
 14 47  1  0
 15 48  1  0
 19 49  1  0
 23 50  1  0
 23 51  1  0
 24 52  1  0
 24 53  1  0
 25 54  1  0
 25 55  1  0
 26 56  1  0
 28 57  1  0
 29 58  1  0
 30 59  1  0
 31 60  1  0
 32 61  1  0
M  END
>  <Energy>  (832) 
452.23374616536103

>  <compound_id>  (832) 
3760

>  <target_id>  (832) 
1

>  <reference_id>  (832) 
129

>  <inspiration_ids>  (832) 
[129, 197]

>  <energy_score>  (832) 
374.4470772036217

>  <distance_score>  (832) 
4.181641095188162

>  <path>  (832) 
/opt/xchem-fragalysis-2/maxwin/BulkDock/SCRATCH/505734/C3760-P129/C3760-P129.minimised.mol

>  <scratch_subdir>  (832) 
/opt/xchem-fragalysis-2/maxwin/BulkDock/SCRATCH/505734/C3760-P129

>  <fragmenstein_runtime>  (832) 
19.095704078674316

>  <fragmenstein_outcome>  (832) 
too moved

>  <fragmenstein_mode>  (832) 
expansion

>  <fragmenstein_error>  (832) 


$$$$
C3760-P197
     RDKit          3D

 61 65  0  0  0  0  0  0  0  0999 V2000
   -4.6874   -8.4815   32.2199 C   0  0  0  0  0  0  0  0  0  0  0  0
   -3.9663   -8.9964   31.2813 N   0  0  0  0  0  0  0  0  0  0  0  0
   -5.2764  -10.4275   31.4947 C   0  0  0  0  0  0  0  0  0  0  0  0
   -5.7635  -11.4685   32.6529 C   0  0  0  0  0  0  0  0  0  0  0  0
   -6.1189  -11.0996   33.8277 C   0  0  0  0  0  0  0  0  0  0  0  0
   -7.6154  -11.8437   34.0855 C   0  0  0  0  0  0  0  0  0  0  0  0
   -8.1199  -12.7515   33.2502 C   0  0  0  0  0  0  0  0  0  0  0  0
   -7.7681  -11.9869   32.3791 C   0  0  0  0  0  0  0  0  0  0  0  0
   -6.5964  -12.4708   32.1500 C   0  0  0  0  0  0  0  0  0  0  0  0
   -2.2952   -8.9226   31.6932 C   0  0  0  0  0  0  0  0  0  0  0  0
   -1.7467   -9.7580   32.2581 O   0  0  0  0  0  0  0  0  0  0  0  0
   -1.8001   -7.5892   31.2884 N   0  0  0  0  0  0  0  0  0  0  0  0
   -0.5853   -6.9447   31.5606 C   0  0  0  0  0  0  0  0  0  0  0  0
   -0.0576   -7.4523   32.8677 C   0  0  0  0  0  0  0  0  0  0  0  0
    1.0306   -6.9960   33.5075 C   0  0  0  0  0  0  0  0  0  0  0  0
    1.8312   -6.0446   32.8645 C   0  0  0  0  0  0  0  0  0  0  0  0
    3.0024   -5.5202   33.1431 N   0  0  0  0  0  0  0  0  0  0  0  0
    3.3053   -4.6316   32.1412 N   0  0  0  0  0  0  0  0  0  0  0  0
    2.2952   -4.6250   31.3024 C   0  0  0  0  0  0  0  0  0  0  0  0
    1.3199   -5.4926   31.7105 N   0  0  0  0  0  0  0  0  0  0  0  0
    0.0539   -5.8063   31.1569 C   0  0  0  0  0  0  0  0  0  0  0  0
   -0.7175   -4.7191   30.6137 N   0  0  0  0  0  0  0  0  0  0  0  0
   -0.4931   -4.2267   29.2419 C   0  0  0  0  0  0  0  0  0  0  0  0
   -0.7933   -2.7495   29.0559 C   0  0  0  0  0  0  0  0  0  0  0  0
    0.0887   -1.9240   29.9689 C   0  0  0  0  0  0  0  0  0  0  0  0
   -0.2776   -2.0320   31.4584 C   0  0  0  0  0  0  0  0  0  0  0  0
    0.8568   -1.7430   32.4449 C   0  0  0  0  0  0  0  0  0  0  0  0
    0.6327   -1.7766   33.8328 C   0  0  0  0  0  0  0  0  0  0  0  0
    1.6575   -1.5182   34.7489 C   0  0  0  0  0  0  0  0  0  0  0  0
    2.9254   -1.1722   34.3017 C   0  0  0  0  0  0  0  0  0  0  0  0
    3.1608   -1.0635   32.9386 C   0  0  0  0  0  0  0  0  0  0  0  0
    2.1364   -1.3296   32.0244 C   0  0  0  0  0  0  0  0  0  0  0  0
   -1.1867   -3.5898   31.8317 S   0  0  0  0  0  0  0  0  0  0  0  0
   -0.8057   -4.1426   33.1116 O   0  0  0  0  0  0  0  0  0  0  0  0
   -2.5955   -3.3516   31.5761 O   0  0  0  0  0  0  0  0  0  0  0  0
   -4.7087   -8.8587   33.2586 H   0  0  0  0  0  0  0  0  0  0  0  0
   -3.8696   -7.8568   32.0036 H   0  0  0  0  0  0  0  0  0  0  0  0
   -5.5236   -7.8605   31.9778 H   0  0  0  0  0  0  0  0  0  0  0  0
   -4.3986  -10.8825   30.9277 H   0  0  0  0  0  0  0  0  0  0  0  0
   -6.0962  -10.6321   30.5205 H   0  0  0  0  0  0  0  0  0  0  0  0
   -5.5685  -10.5648   34.5923 H   0  0  0  0  0  0  0  0  0  0  0  0
   -7.7710  -11.8609   35.1481 H   0  0  0  0  0  0  0  0  0  0  0  0
   -8.9599  -13.4112   33.2048 H   0  0  0  0  0  0  0  0  0  0  0  0
   -8.4978  -11.3957   31.8346 H   0  0  0  0  0  0  0  0  0  0  0  0
   -6.4498  -13.1637   31.3266 H   0  0  0  0  0  0  0  0  0  0  0  0
   -2.4888   -7.1410   30.7464 H   0  0  0  0  0  0  0  0  0  0  0  0
   -0.6865   -8.1209   33.4525 H   0  0  0  0  0  0  0  0  0  0  0  0
    1.2928   -7.3366   34.5029 H   0  0  0  0  0  0  0  0  0  0  0  0
    2.2473   -4.0467   30.3964 H   0  0  0  0  0  0  0  0  0  0  0  0
    0.5361   -4.4305   28.9295 H   0  0  0  0  0  0  0  0  0  0  0  0
   -1.1501   -4.7704   28.5761 H   0  0  0  0  0  0  0  0  0  0  0  0
   -1.8507   -2.5236   29.2252 H   0  0  0  0  0  0  0  0  0  0  0  0
   -0.5833   -2.4796   28.0138 H   0  0  0  0  0  0  0  0  0  0  0  0
    1.1168   -2.2377   29.7719 H   0  0  0  0  0  0  0  0  0  0  0  0
    0.0405   -0.8685   29.6717 H   0  0  0  0  0  0  0  0  0  0  0  0
   -1.0357   -1.2573   31.6478 H   0  0  0  0  0  0  0  0  0  0  0  0
   -0.3488   -2.0201   34.2393 H   0  0  0  0  0  0  0  0  0  0  0  0
    1.4581   -1.5919   35.8150 H   0  0  0  0  0  0  0  0  0  0  0  0
    3.7233   -0.9814   35.0134 H   0  0  0  0  0  0  0  0  0  0  0  0
    4.1470   -0.7773   32.5824 H   0  0  0  0  0  0  0  0  0  0  0  0
    2.3896   -1.1978   30.9773 H   0  0  0  0  0  0  0  0  0  0  0  0
  1  2  1  0
  2  3  1  0
  3  4  1  0
  4  5  2  0
  5  6  1  0
  6  7  2  0
  7  8  1  0
  8  9  2  0
  2 10  1  0
 10 11  2  0
 10 12  1  0
 12 13  1  0
 13 14  1  0
 14 15  2  0
 15 16  1  0
 16 17  2  0
 17 18  1  0
 18 19  2  0
 19 20  1  0
 20 21  1  0
 21 22  1  0
 22 23  1  0
 23 24  1  0
 24 25  1  0
 25 26  1  0
 26 27  1  0
 27 28  2  0
 28 29  1  0
 29 30  2  0
 30 31  1  0
 31 32  2  0
 26 33  1  0
 33 34  2  0
 33 35  2  0
  9  4  1  0
 21 13  2  0
 33 22  1  0
 20 16  1  0
 32 27  1  0
  1 36  1  0
  1 37  1  0
  1 38  1  0
  3 39  1  0
  3 40  1  0
  5 41  1  0
  6 42  1  0
  7 43  1  0
  8 44  1  0
  9 45  1  0
 12 46  1  0
 14 47  1  0
 15 48  1  0
 19 49  1  0
 23 50  1  0
 23 51  1  0
 24 52  1  0
 24 53  1  0
 25 54  1  0
 25 55  1  0
 26 56  1  0
 28 57  1  0
 29 58  1  0
 30 59  1  0
 31 60  1  0
 32 61  1  0
M  END
>  <Energy>  (833) 
527.68792983171136

>  <compound_id>  (833) 
3760

>  <target_id>  (833) 
1

>  <reference_id>  (833) 
197

>  <inspiration_ids>  (833) 
[129, 197]

>  <energy_score>  (833) 
449.9012608699589

>  <distance_score>  (833) 
2.806817610429195

>  <path>  (833) 
/opt/xchem-fragalysis-2/maxwin/BulkDock/SCRATCH/505734/C3760-P197/C3760-P197.minimised.mol

>  <scratch_subdir>  (833) 
/opt/xchem-fragalysis-2/maxwin/BulkDock/SCRATCH/505734/C3760-P197

>  <fragmenstein_runtime>  (833) 
12.92917251586914

>  <fragmenstein_outcome>  (833) 
too moved

>  <fragmenstein_mode>  (833) 
expansion

>  <fragmenstein_error>  (833) 


$$$$
C3762-P129
     RDKit          3D

 72 76  0  0  0  0  0  0  0  0999 V2000
    2.4950   -0.6520   29.4519 N   0  0  0  0  0  0  0  0  0  0  0  0
    2.5311   -1.0481   31.1474 C   0  0  0  0  0  0  0  0  0  0  0  0
    0.7515   -1.4845   31.0041 C   0  0  0  0  0  0  0  0  0  0  0  0
    0.4577   -2.2540   29.7550 N   0  0  0  0  0  0  0  0  0  0  0  0
    0.0764   -3.6487   29.9132 C   0  0  0  0  0  0  0  0  0  0  0  0
    1.1181   -4.6045   29.3839 N   0  0  0  0  0  0  0  0  0  0  0  0
    1.3878   -4.7935   30.8588 C   0  0  0  0  0  0  0  0  0  0  0  0
    0.4790   -5.7543   31.6250 C   0  0  0  0  0  0  0  0  0  0  0  0
    0.1143   -5.4416   32.9443 C   0  0  0  0  0  0  0  0  0  0  0  0
   -0.6759   -6.3089   33.6940 C   0  0  0  0  0  0  0  0  0  0  0  0
   -1.1130   -7.5010   33.1316 C   0  0  0  0  0  0  0  0  0  0  0  0
   -0.7738   -7.8184   31.8194 C   0  0  0  0  0  0  0  0  0  0  0  0
    0.0198   -6.9517   31.0675 C   0  0  0  0  0  0  0  0  0  0  0  0
    2.3828   -4.3422   28.6681 C   0  0  0  0  0  0  0  0  0  0  0  0
    2.9171   -3.3279   28.4213 O   0  0  0  0  0  0  0  0  0  0  0  0
    2.7172   -5.7017   28.2784 N   0  0  0  0  0  0  0  0  0  0  0  0
    3.7460   -6.2068   27.3957 C   0  0  0  0  0  0  0  0  0  0  0  0
    5.1390   -6.3006   28.0121 C   0  0  0  0  0  0  0  0  0  0  0  0
    5.7906   -5.0367   28.2589 N   0  0  0  0  0  0  0  0  0  0  0  0
    6.2465   -4.1537   27.3294 C   0  0  0  0  0  0  0  0  0  0  0  0
    6.9142   -3.1946   27.9295 N   0  0  0  0  0  0  0  0  0  0  0  0
    6.8935   -3.4536   29.2804 N   0  0  0  0  0  0  0  0  0  0  0  0
    6.2099   -4.5602   29.4620 C   0  0  0  0  0  0  0  0  0  0  0  0
    3.6791   -0.0700   32.7083 C   0  0  0  0  0  0  0  0  0  0  0  0
    5.2132    0.1622   32.6718 O   0  0  0  0  0  0  0  0  0  0  0  0
    5.6520    0.8956   33.7156 C   0  0  0  0  0  0  0  0  0  0  0  0
    4.8158    1.1949   34.6688 N   0  0  0  0  0  0  0  0  0  0  0  0
    3.6414    0.7433   34.1805 C   0  0  0  0  0  0  0  0  0  0  0  0
    2.4752    0.2986   34.8350 C   0  0  0  0  0  0  0  0  0  0  0  0
    1.5541    0.9158   35.2804 O   0  0  0  0  0  0  0  0  0  0  0  0
    2.6854   -1.0594   34.6947 N   0  0  0  0  0  0  0  0  0  0  0  0
    1.9034   -2.0728   34.9055 C   0  0  0  0  0  0  0  0  0  0  0  0
    2.3620   -3.3353   34.9941 C   0  0  0  0  0  0  0  0  0  0  0  0
    3.3715   -3.9473   34.2674 N   0  0  0  0  0  0  0  0  0  0  0  0
    4.0735   -3.5272   33.1522 C   0  0  0  0  0  0  0  0  0  0  0  0
    4.9662   -4.2062   32.6649 O   0  0  0  0  0  0  0  0  0  0  0  0
    3.6448   -2.2734   32.5247 C   0  0  0  0  0  0  0  0  0  0  0  0
    4.5961   -1.3828   31.2605 C   0  0  0  0  0  0  0  0  0  0  0  0
    4.0741    0.2945   30.7199 C   0  0  0  0  0  0  0  0  0  0  0  0
    2.5158    0.9963   31.3829 C   0  0  0  0  0  0  0  0  0  0  0  0
    1.5489    0.0244   32.5925 C   0  0  0  0  0  0  0  0  0  0  0  0
    2.0809   -1.6552   33.1684 C   0  0  0  0  0  0  0  0  0  0  0  0
    1.7716   -1.2910   29.0842 H   0  0  0  0  0  0  0  0  0  0  0  0
    3.3226   -1.1301   29.0681 H   0  0  0  0  0  0  0  0  0  0  0  0
    2.8000   -2.0949   30.8619 H   0  0  0  0  0  0  0  0  0  0  0  0
    0.3295   -2.0358   31.8505 H   0  0  0  0  0  0  0  0  0  0  0  0
    0.1780   -0.5539   30.8738 H   0  0  0  0  0  0  0  0  0  0  0  0
   -0.2732   -1.7656   29.2303 H   0  0  0  0  0  0  0  0  0  0  0  0
   -0.5731   -3.8574   30.7768 H   0  0  0  0  0  0  0  0  0  0  0  0
   -0.6727   -3.7803   29.1153 H   0  0  0  0  0  0  0  0  0  0  0  0
    2.3577   -5.3154   30.8945 H   0  0  0  0  0  0  0  0  0  0  0  0
    1.6352   -3.8890   31.4217 H   0  0  0  0  0  0  0  0  0  0  0  0
    0.4304   -4.5075   33.3975 H   0  0  0  0  0  0  0  0  0  0  0  0
   -0.9580   -6.0556   34.7143 H   0  0  0  0  0  0  0  0  0  0  0  0
   -1.7169   -8.1858   33.7230 H   0  0  0  0  0  0  0  0  0  0  0  0
   -1.1008   -8.7654   31.4012 H   0  0  0  0  0  0  0  0  0  0  0  0
    0.2920   -7.2295   30.0553 H   0  0  0  0  0  0  0  0  0  0  0  0
    1.9922   -6.3246   28.5996 H   0  0  0  0  0  0  0  0  0  0  0  0
    3.4198   -7.2011   27.0742 H   0  0  0  0  0  0  0  0  0  0  0  0
    3.7604   -5.5567   26.5141 H   0  0  0  0  0  0  0  0  0  0  0  0
    5.1045   -6.8505   28.9557 H   0  0  0  0  0  0  0  0  0  0  0  0
    5.7988   -6.8568   27.3352 H   0  0  0  0  0  0  0  0  0  0  0  0
    6.0859   -4.2464   26.2650 H   0  0  0  0  0  0  0  0  0  0  0  0
    6.0166   -5.0371   30.4117 H   0  0  0  0  0  0  0  0  0  0  0  0
    6.7060    1.1386   33.6886 H   0  0  0  0  0  0  0  0  0  0  0  0
    3.6334   -1.2148   34.3529 H   0  0  0  0  0  0  0  0  0  0  0  0
    1.9432   -3.9650   35.7780 H   0  0  0  0  0  0  0  0  0  0  0  0
    3.6690   -4.8650   34.5863 H   0  0  0  0  0  0  0  0  0  0  0  0
    5.5320   -1.7971   30.8865 H   0  0  0  0  0  0  0  0  0  0  0  0
    4.6685    0.8510   29.9973 H   0  0  0  0  0  0  0  0  0  0  0  0
    2.1886    1.9836   31.0647 H   0  0  0  0  0  0  0  0  0  0  0  0
    0.6635    0.4931   33.0352 H   0  0  0  0  0  0  0  0  0  0  0  0
  1  2  1  0
  2  3  1  0
  3  4  1  0
  4  5  1  0
  5  6  1  0
  6  7  1  0
  7  8  1  0
  8  9  2  0
  9 10  1  0
 10 11  2  0
 11 12  1  0
 12 13  2  0
  6 14  1  0
 14 15  2  0
 14 16  1  0
 16 17  1  0
 17 18  1  0
 18 19  1  0
 19 20  1  0
 20 21  2  0
 21 22  1  0
 22 23  2  0
  2 24  1  0
 24 25  1  0
 25 26  1  0
 26 27  2  0
 27 28  1  0
 28 29  1  0
 29 30  2  0
 29 31  1  0
 31 32  1  0
 32 33  2  0
 33 34  1  0
 34 35  1  0
 35 36  2  0
 35 37  1  0
 37 38  2  0
 38 39  1  0
 39 40  2  0
 40 41  1  0
 41 42  2  0
 13  8  1  0
 23 19  1  0
 28 24  2  0
 42 32  1  0
 42 37  1  0
  1 43  1  0
  1 44  1  0
  2 45  1  0
  3 46  1  0
  3 47  1  0
  4 48  1  0
  5 49  1  0
  5 50  1  0
  7 51  1  0
  7 52  1  0
  9 53  1  0
 10 54  1  0
 11 55  1  0
 12 56  1  0
 13 57  1  0
 16 58  1  0
 17 59  1  0
 17 60  1  0
 18 61  1  0
 18 62  1  0
 20 63  1  0
 23 64  1  0
 26 65  1  0
 31 66  1  0
 33 67  1  0
 34 68  1  0
 38 69  1  0
 39 70  1  0
 40 71  1  0
 41 72  1  0
M  END
>  <Energy>  (834) 
1336.9961747113448

>  <compound_id>  (834) 
3762

>  <target_id>  (834) 
1

>  <reference_id>  (834) 
129

>  <inspiration_ids>  (834) 
[129, 199]

>  <energy_score>  (834) 
1278.6644703552972

>  <distance_score>  (834) 
2.766752114691623

>  <path>  (834) 
/opt/xchem-fragalysis-2/maxwin/BulkDock/SCRATCH/505734/C3762-P129/C3762-P129.minimised.mol

>  <scratch_subdir>  (834) 
/opt/xchem-fragalysis-2/maxwin/BulkDock/SCRATCH/505734/C3762-P129

>  <fragmenstein_runtime>  (834) 
106.20368766784668

>  <fragmenstein_outcome>  (834) 
too moved

>  <fragmenstein_mode>  (834) 
expansion

>  <fragmenstein_error>  (834) 


$$$$
C3762-P199
     RDKit          3D

 72 76  0  0  0  0  0  0  0  0999 V2000
    1.8489   -1.4082   33.2752 N   0  0  0  0  0  0  0  0  0  0  0  0
    2.5080    0.0528   32.6398 C   0  0  0  0  0  0  0  0  0  0  0  0
    1.7326   -0.2001   30.9859 C   0  0  0  0  0  0  0  0  0  0  0  0
    1.1799   -1.5648   30.8342 N   0  0  0  0  0  0  0  0  0  0  0  0
    1.0231   -2.0658   29.4680 C   0  0  0  0  0  0  0  0  0  0  0  0
    2.1181   -2.4429   28.4816 N   0  0  0  0  0  0  0  0  0  0  0  0
    2.6845   -3.1924   29.7245 C   0  0  0  0  0  0  0  0  0  0  0  0
    1.9632   -4.3130   30.5058 C   0  0  0  0  0  0  0  0  0  0  0  0
    2.2092   -4.4721   31.8822 C   0  0  0  0  0  0  0  0  0  0  0  0
    1.4946   -5.3980   32.6509 C   0  0  0  0  0  0  0  0  0  0  0  0
    0.5562   -6.2252   32.0467 C   0  0  0  0  0  0  0  0  0  0  0  0
    0.3503   -6.1301   30.6736 C   0  0  0  0  0  0  0  0  0  0  0  0
    1.0478   -5.1811   29.9144 C   0  0  0  0  0  0  0  0  0  0  0  0
    3.1859   -1.6081   27.8598 C   0  0  0  0  0  0  0  0  0  0  0  0
    3.4835   -0.4890   28.0572 O   0  0  0  0  0  0  0  0  0  0  0  0
    3.6877   -2.5633   26.8609 N   0  0  0  0  0  0  0  0  0  0  0  0
    4.6386   -2.3824   25.7451 C   0  0  0  0  0  0  0  0  0  0  0  0
    4.0370   -1.6119   24.4566 C   0  0  0  0  0  0  0  0  0  0  0  0
    2.9657   -2.3252   23.4886 N   0  0  0  0  0  0  0  0  0  0  0  0
    2.7612   -3.5208   23.8120 C   0  0  0  0  0  0  0  0  0  0  0  0
    2.3009   -3.8401   22.6008 N   0  0  0  0  0  0  0  0  0  0  0  0
    1.0818   -3.8071   22.6721 N   0  0  0  0  0  0  0  0  0  0  0  0
    1.3262   -2.6088   23.0107 C   0  0  0  0  0  0  0  0  0  0  0  0
    4.3725    1.0360   33.1487 C   0  0  0  0  0  0  0  0  0  0  0  0
    5.7838    0.4739   32.8232 O   0  0  0  0  0  0  0  0  0  0  0  0
    6.7674    1.3375   33.1548 C   0  0  0  0  0  0  0  0  0  0  0  0
    6.4557    2.4502   33.7561 N   0  0  0  0  0  0  0  0  0  0  0  0
    5.1085    2.4079   33.7687 C   0  0  0  0  0  0  0  0  0  0  0  0
    4.1470    3.0519   34.5728 C   0  0  0  0  0  0  0  0  0  0  0  0
    3.7198    4.1665   34.5257 O   0  0  0  0  0  0  0  0  0  0  0  0
    3.7855    1.9661   35.3414 N   0  0  0  0  0  0  0  0  0  0  0  0
    2.8006    1.7924   36.1724 C   0  0  0  0  0  0  0  0  0  0  0  0
    2.7636    0.7534   37.0322 C   0  0  0  0  0  0  0  0  0  0  0  0
    3.2734   -0.5270   36.8625 N   0  0  0  0  0  0  0  0  0  0  0  0
    3.7421   -1.1664   35.7277 C   0  0  0  0  0  0  0  0  0  0  0  0
    4.3123   -2.2492   35.7727 O   0  0  0  0  0  0  0  0  0  0  0  0
    3.5173   -0.4865   34.4477 C   0  0  0  0  0  0  0  0  0  0  0  0
    4.2234   -1.0759   32.8744 C   0  0  0  0  0  0  0  0  0  0  0  0
    4.1189   -0.0187   31.3839 C   0  0  0  0  0  0  0  0  0  0  0  0
    3.2621    1.6061   31.5056 C   0  0  0  0  0  0  0  0  0  0  0  0
    2.4548    2.0898   33.0688 C   0  0  0  0  0  0  0  0  0  0  0  0
    2.5297    1.0260   34.5803 C   0  0  0  0  0  0  0  0  0  0  0  0
    1.8086   -1.9894   32.4277 H   0  0  0  0  0  0  0  0  0  0  0  0
    0.8656   -1.2008   33.4540 H   0  0  0  0  0  0  0  0  0  0  0  0
    1.5347    0.5076   32.9629 H   0  0  0  0  0  0  0  0  0  0  0  0
    2.3369    0.0314   30.1085 H   0  0  0  0  0  0  0  0  0  0  0  0
    0.8842    0.5014   30.9509 H   0  0  0  0  0  0  0  0  0  0  0  0
    0.2469   -1.5626   31.2546 H   0  0  0  0  0  0  0  0  0  0  0  0
    0.2403   -2.8347   29.4260 H   0  0  0  0  0  0  0  0  0  0  0  0
    0.5296   -1.2434   28.9270 H   0  0  0  0  0  0  0  0  0  0  0  0
    3.2557   -2.5105   30.3707 H   0  0  0  0  0  0  0  0  0  0  0  0
    3.5177   -3.7588   29.2744 H   0  0  0  0  0  0  0  0  0  0  0  0
    2.9473   -3.8503   32.3863 H   0  0  0  0  0  0  0  0  0  0  0  0
    1.6748   -5.4636   33.7219 H   0  0  0  0  0  0  0  0  0  0  0  0
   -0.0003   -6.9460   32.6416 H   0  0  0  0  0  0  0  0  0  0  0  0
   -0.3580   -6.7976   30.1947 H   0  0  0  0  0  0  0  0  0  0  0  0
    0.8436   -5.0702   28.8585 H   0  0  0  0  0  0  0  0  0  0  0  0
    3.2689   -3.4677   27.0277 H   0  0  0  0  0  0  0  0  0  0  0  0
    5.4498   -1.7592   26.1375 H   0  0  0  0  0  0  0  0  0  0  0  0
    5.0523   -3.3597   25.4879 H   0  0  0  0  0  0  0  0  0  0  0  0
    4.8730   -1.4172   23.7721 H   0  0  0  0  0  0  0  0  0  0  0  0
    3.5954   -0.6999   24.8801 H   0  0  0  0  0  0  0  0  0  0  0  0
    3.0485   -4.0094   24.7522 H   0  0  0  0  0  0  0  0  0  0  0  0
    0.5338   -1.9033   22.9216 H   0  0  0  0  0  0  0  0  0  0  0  0
    7.7671    1.0037   32.9107 H   0  0  0  0  0  0  0  0  0  0  0  0
    4.4383    1.2061   35.1679 H   0  0  0  0  0  0  0  0  0  0  0  0
    2.3846    0.9439   38.0344 H   0  0  0  0  0  0  0  0  0  0  0  0
    3.3224   -1.1178   37.6868 H   0  0  0  0  0  0  0  0  0  0  0  0
    4.8084   -1.9927   32.8658 H   0  0  0  0  0  0  0  0  0  0  0  0
    4.6413   -0.2983   30.4692 H   0  0  0  0  0  0  0  0  0  0  0  0
    3.2618    2.2852   30.6520 H   0  0  0  0  0  0  0  0  0  0  0  0
    1.9887    3.0779   33.1336 H   0  0  0  0  0  0  0  0  0  0  0  0
  1  2  1  0
  2  3  1  0
  3  4  1  0
  4  5  1  0
  5  6  1  0
  6  7  1  0
  7  8  1  0
  8  9  2  0
  9 10  1  0
 10 11  2  0
 11 12  1  0
 12 13  2  0
  6 14  1  0
 14 15  2  0
 14 16  1  0
 16 17  1  0
 17 18  1  0
 18 19  1  0
 19 20  1  0
 20 21  2  0
 21 22  1  0
 22 23  2  0
  2 24  1  0
 24 25  1  0
 25 26  1  0
 26 27  2  0
 27 28  1  0
 28 29  1  0
 29 30  2  0
 29 31  1  0
 31 32  1  0
 32 33  2  0
 33 34  1  0
 34 35  1  0
 35 36  2  0
 35 37  1  0
 37 38  2  0
 38 39  1  0
 39 40  2  0
 40 41  1  0
 41 42  2  0
 13  8  1  0
 23 19  1  0
 28 24  2  0
 42 32  1  0
 42 37  1  0
  1 43  1  0
  1 44  1  0
  2 45  1  0
  3 46  1  0
  3 47  1  0
  4 48  1  0
  5 49  1  0
  5 50  1  0
  7 51  1  0
  7 52  1  0
  9 53  1  0
 10 54  1  0
 11 55  1  0
 12 56  1  0
 13 57  1  0
 16 58  1  0
 17 59  1  0
 17 60  1  0
 18 61  1  0
 18 62  1  0
 20 63  1  0
 23 64  1  0
 26 65  1  0
 31 66  1  0
 33 67  1  0
 34 68  1  0
 38 69  1  0
 39 70  1  0
 40 71  1  0
 41 72  1  0
M  END
>  <Energy>  (835) 
1541.7746788698873

>  <compound_id>  (835) 
3762

>  <target_id>  (835) 
1

>  <reference_id>  (835) 
199

>  <inspiration_ids>  (835) 
[129, 199]

>  <energy_score>  (835) 
1483.442974513844

>  <distance_score>  (835) 
4.033711604351647

>  <path>  (835) 
/opt/xchem-fragalysis-2/maxwin/BulkDock/SCRATCH/505734/C3762-P199/C3762-P199.minimised.mol

>  <scratch_subdir>  (835) 
/opt/xchem-fragalysis-2/maxwin/BulkDock/SCRATCH/505734/C3762-P199

>  <fragmenstein_runtime>  (835) 
102.47067189216614

>  <fragmenstein_outcome>  (835) 
too moved

>  <fragmenstein_mode>  (835) 
expansion

>  <fragmenstein_error>  (835) 


$$$$
C3763-P129
     RDKit          3D

 76 80  0  0  0  0  0  0  0  0999 V2000
    3.7033   -0.1857   41.0136 N   0  0  0  0  0  0  0  0  0  0  0  0
    4.1322    0.8537   40.0825 C   0  0  0  0  0  0  0  0  0  0  0  0
    3.0698    1.1597   39.0822 C   0  0  0  0  0  0  0  0  0  0  0  0
    2.4365    2.3518   39.2375 O   0  0  0  0  0  0  0  0  0  0  0  0
    1.5209    2.4471   38.2514 C   0  0  0  0  0  0  0  0  0  0  0  0
    1.5335    1.3269   37.4409 C   0  0  0  0  0  0  0  0  0  0  0  0
    0.6079    1.1274   36.2843 C   0  0  0  0  0  0  0  0  0  0  0  0
   -0.3820   -0.0395   36.4363 C   0  0  0  0  0  0  0  0  0  0  0  0
   -0.0300   -1.1034   35.4995 N   0  0  0  0  0  0  0  0  0  0  0  0
   -1.1761   -1.9370   35.1171 C   0  0  0  0  0  0  0  0  0  0  0  0
   -0.8512   -3.0945   34.1835 N   0  0  0  0  0  0  0  0  0  0  0  0
   -0.6281   -1.9649   33.2036 C   0  0  0  0  0  0  0  0  0  0  0  0
   -0.5130   -2.5865   31.7981 C   0  0  0  0  0  0  0  0  0  0  0  0
   -1.2783   -2.0731   30.7436 C   0  0  0  0  0  0  0  0  0  0  0  0
   -1.1239   -2.5722   29.4529 C   0  0  0  0  0  0  0  0  0  0  0  0
   -0.2220   -3.6007   29.2030 C   0  0  0  0  0  0  0  0  0  0  0  0
    0.5387   -4.1296   30.2338 C   0  0  0  0  0  0  0  0  0  0  0  0
    0.4051   -3.6118   31.5196 C   0  0  0  0  0  0  0  0  0  0  0  0
    0.0936   -3.9922   34.8180 C   0  0  0  0  0  0  0  0  0  0  0  0
    1.2659   -3.9999   34.7921 O   0  0  0  0  0  0  0  0  0  0  0  0
   -0.8383   -4.9287   35.4104 N   0  0  0  0  0  0  0  0  0  0  0  0
   -0.6159   -6.1935   36.0591 C   0  0  0  0  0  0  0  0  0  0  0  0
   -0.9836   -7.3949   35.1804 C   0  0  0  0  0  0  0  0  0  0  0  0
   -0.5556   -7.3463   33.8000 N   0  0  0  0  0  0  0  0  0  0  0  0
   -1.2450   -7.8430   32.7335 C   0  0  0  0  0  0  0  0  0  0  0  0
   -0.5853   -7.6047   31.6247 N   0  0  0  0  0  0  0  0  0  0  0  0
    0.5841   -6.9740   31.9756 N   0  0  0  0  0  0  0  0  0  0  0  0
    0.5973   -6.8468   33.2841 C   0  0  0  0  0  0  0  0  0  0  0  0
    2.5684    0.4780   37.9773 C   0  0  0  0  0  0  0  0  0  0  0  0
    3.0568   -0.8565   37.5934 C   0  0  0  0  0  0  0  0  0  0  0  0
    3.3027   -1.6270   38.4758 O   0  0  0  0  0  0  0  0  0  0  0  0
    3.1774   -0.9930   36.1679 N   0  0  0  0  0  0  0  0  0  0  0  0
    3.6927   -2.0097   35.3997 C   0  0  0  0  0  0  0  0  0  0  0  0
    4.2073   -3.1196   35.9578 C   0  0  0  0  0  0  0  0  0  0  0  0
    4.7352   -4.1478   35.2260 N   0  0  0  0  0  0  0  0  0  0  0  0
    4.7674   -4.1840   33.8560 C   0  0  0  0  0  0  0  0  0  0  0  0
    5.2513   -5.1341   33.2507 O   0  0  0  0  0  0  0  0  0  0  0  0
    4.1946   -3.0058   33.1595 C   0  0  0  0  0  0  0  0  0  0  0  0
    4.1661   -3.0056   31.7580 C   0  0  0  0  0  0  0  0  0  0  0  0
    3.6106   -1.9276   31.0791 C   0  0  0  0  0  0  0  0  0  0  0  0
    3.1008   -0.8503   31.7970 C   0  0  0  0  0  0  0  0  0  0  0  0
    3.1404   -0.8460   33.1975 C   0  0  0  0  0  0  0  0  0  0  0  0
    3.6809   -1.9277   33.9116 C   0  0  0  0  0  0  0  0  0  0  0  0
    3.5183   -1.0319   40.4628 H   0  0  0  0  0  0  0  0  0  0  0  0
    2.8042    0.0842   41.4088 H   0  0  0  0  0  0  0  0  0  0  0  0
    4.3887    1.7545   40.6506 H   0  0  0  0  0  0  0  0  0  0  0  0
    5.0444    0.5295   39.5705 H   0  0  0  0  0  0  0  0  0  0  0  0
    0.9309    3.3545   38.2566 H   0  0  0  0  0  0  0  0  0  0  0  0
    0.0161    2.0452   36.1567 H   0  0  0  0  0  0  0  0  0  0  0  0
    1.1897    1.0492   35.3584 H   0  0  0  0  0  0  0  0  0  0  0  0
   -0.4248   -0.4257   37.4606 H   0  0  0  0  0  0  0  0  0  0  0  0
   -1.3796    0.3460   36.1922 H   0  0  0  0  0  0  0  0  0  0  0  0
    0.6987   -1.7058   35.8933 H   0  0  0  0  0  0  0  0  0  0  0  0
   -2.0899   -1.3866   34.8338 H   0  0  0  0  0  0  0  0  0  0  0  0
   -1.4946   -2.4323   36.0477 H   0  0  0  0  0  0  0  0  0  0  0  0
    0.3489   -1.4798   33.3201 H   0  0  0  0  0  0  0  0  0  0  0  0
   -1.4506   -1.2409   33.0938 H   0  0  0  0  0  0  0  0  0  0  0  0
   -1.9880   -1.2664   30.9069 H   0  0  0  0  0  0  0  0  0  0  0  0
   -1.7130   -2.1690   28.6310 H   0  0  0  0  0  0  0  0  0  0  0  0
   -0.1297   -3.9906   28.1986 H   0  0  0  0  0  0  0  0  0  0  0  0
    1.2341   -4.9426   30.0478 H   0  0  0  0  0  0  0  0  0  0  0  0
    1.0436   -4.0133   32.2997 H   0  0  0  0  0  0  0  0  0  0  0  0
   -1.7896   -4.6511   35.1672 H   0  0  0  0  0  0  0  0  0  0  0  0
   -1.1860   -6.2026   36.9904 H   0  0  0  0  0  0  0  0  0  0  0  0
    0.4479   -6.2443   36.3173 H   0  0  0  0  0  0  0  0  0  0  0  0
   -2.0736   -7.4987   35.1607 H   0  0  0  0  0  0  0  0  0  0  0  0
   -0.5693   -8.3069   35.6188 H   0  0  0  0  0  0  0  0  0  0  0  0
   -2.1837   -8.3688   32.8122 H   0  0  0  0  0  0  0  0  0  0  0  0
    1.3924   -6.4036   33.8674 H   0  0  0  0  0  0  0  0  0  0  0  0
    2.9567   -0.1097   35.7333 H   0  0  0  0  0  0  0  0  0  0  0  0
    4.2478   -3.2750   37.0305 H   0  0  0  0  0  0  0  0  0  0  0  0
    5.1123   -4.9593   35.6988 H   0  0  0  0  0  0  0  0  0  0  0  0
    4.5578   -3.8530   31.2007 H   0  0  0  0  0  0  0  0  0  0  0  0
    3.5612   -1.9318   29.9933 H   0  0  0  0  0  0  0  0  0  0  0  0
    2.6541   -0.0138   31.2638 H   0  0  0  0  0  0  0  0  0  0  0  0
    2.7083    0.0109   33.7017 H   0  0  0  0  0  0  0  0  0  0  0  0
  1  2  1  0
  2  3  1  0
  3  4  1  0
  4  5  1  0
  5  6  2  0
  6  7  1  0
  7  8  1  0
  8  9  1  0
  9 10  1  0
 10 11  1  0
 11 12  1  0
 12 13  1  0
 13 14  2  0
 14 15  1  0
 15 16  2  0
 16 17  1  0
 17 18  2  0
 11 19  1  0
 19 20  2  0
 19 21  1  0
 21 22  1  0
 22 23  1  0
 23 24  1  0
 24 25  1  0
 25 26  2  0
 26 27  1  0
 27 28  2  0
  6 29  1  0
 29 30  1  0
 30 31  2  0
 30 32  1  0
 32 33  1  0
 33 34  2  0
 34 35  1  0
 35 36  1  0
 36 37  2  0
 36 38  1  0
 38 39  2  0
 39 40  1  0
 40 41  2  0
 41 42  1  0
 42 43  2  0
 29  3  2  0
 43 33  1  0
 18 13  1  0
 28 24  1  0
 43 38  1  0
  1 44  1  0
  1 45  1  0
  2 46  1  0
  2 47  1  0
  5 48  1  0
  7 49  1  0
  7 50  1  0
  8 51  1  0
  8 52  1  0
  9 53  1  0
 10 54  1  0
 10 55  1  0
 12 56  1  0
 12 57  1  0
 14 58  1  0
 15 59  1  0
 16 60  1  0
 17 61  1  0
 18 62  1  0
 21 63  1  0
 22 64  1  0
 22 65  1  0
 23 66  1  0
 23 67  1  0
 25 68  1  0
 28 69  1  0
 32 70  1  0
 34 71  1  0
 35 72  1  0
 39 73  1  0
 40 74  1  0
 41 75  1  0
 42 76  1  0
M  END
>  <Energy>  (836) 
26.156037801186333

>  <compound_id>  (836) 
3763

>  <target_id>  (836) 
1

>  <reference_id>  (836) 
129

>  <inspiration_ids>  (836) 
[129, 200]

>  <energy_score>  (836) 
24.443540615530694

>  <distance_score>  (836) 
3.838820662945549

>  <path>  (836) 
/opt/xchem-fragalysis-2/maxwin/BulkDock/SCRATCH/505734/C3763-P129/C3763-P129.minimised.mol

>  <scratch_subdir>  (836) 
/opt/xchem-fragalysis-2/maxwin/BulkDock/SCRATCH/505734/C3763-P129

>  <fragmenstein_runtime>  (836) 
32.96262717247009

>  <fragmenstein_outcome>  (836) 
too moved

>  <fragmenstein_mode>  (836) 
expansion

>  <fragmenstein_error>  (836) 


$$$$
C3763-P200
     RDKit          3D

 76 80  0  0  0  0  0  0  0  0999 V2000
    2.0377   -8.7153   40.0321 N   0  0  0  0  0  0  0  0  0  0  0  0
    2.7189   -7.9797   38.9672 C   0  0  0  0  0  0  0  0  0  0  0  0
    2.0080   -6.7198   38.5779 C   0  0  0  0  0  0  0  0  0  0  0  0
    0.7674   -6.5247   39.1087 O   0  0  0  0  0  0  0  0  0  0  0  0
    0.3144   -5.3414   38.6548 C   0  0  0  0  0  0  0  0  0  0  0  0
    1.2215   -4.7615   37.7907 C   0  0  0  0  0  0  0  0  0  0  0  0
    0.9810   -3.4712   37.0733 C   0  0  0  0  0  0  0  0  0  0  0  0
    0.1382   -3.6822   35.7988 C   0  0  0  0  0  0  0  0  0  0  0  0
    0.7163   -4.7448   34.9452 N   0  0  0  0  0  0  0  0  0  0  0  0
   -0.1665   -5.0107   33.7943 C   0  0  0  0  0  0  0  0  0  0  0  0
   -0.0029   -6.4131   33.1926 N   0  0  0  0  0  0  0  0  0  0  0  0
    0.9476   -5.6883   32.2942 C   0  0  0  0  0  0  0  0  0  0  0  0
    0.5935   -4.9748   31.0027 C   0  0  0  0  0  0  0  0  0  0  0  0
   -0.5762   -4.2488   30.7766 C   0  0  0  0  0  0  0  0  0  0  0  0
   -0.6979   -3.4231   29.6553 C   0  0  0  0  0  0  0  0  0  0  0  0
    0.3350   -3.3353   28.7291 C   0  0  0  0  0  0  0  0  0  0  0  0
    1.4871   -4.0872   28.9045 C   0  0  0  0  0  0  0  0  0  0  0  0
    1.6157   -4.8928   30.0332 C   0  0  0  0  0  0  0  0  0  0  0  0
    0.2499   -7.3854   34.2539 C   0  0  0  0  0  0  0  0  0  0  0  0
    1.2674   -7.7560   34.7057 O   0  0  0  0  0  0  0  0  0  0  0  0
   -1.1265   -7.6827   34.6544 N   0  0  0  0  0  0  0  0  0  0  0  0
   -1.6349   -8.4264   35.7676 C   0  0  0  0  0  0  0  0  0  0  0  0
   -2.7334   -9.6188   36.1012 C   0  0  0  0  0  0  0  0  0  0  0  0
   -4.1591   -9.7362   36.1470 N   0  0  0  0  0  0  0  0  0  0  0  0
   -4.7822   -8.5954   36.1512 C   0  0  0  0  0  0  0  0  0  0  0  0
   -4.2110   -8.0544   35.0992 N   0  0  0  0  0  0  0  0  0  0  0  0
   -4.2164   -9.1089   34.2342 N   0  0  0  0  0  0  0  0  0  0  0  0
   -4.7056  -10.0683   35.0008 C   0  0  0  0  0  0  0  0  0  0  0  0
    2.3443   -5.6738   37.7144 C   0  0  0  0  0  0  0  0  0  0  0  0
    3.6312   -5.6434   36.9636 C   0  0  0  0  0  0  0  0  0  0  0  0
    4.5464   -6.2393   37.4545 O   0  0  0  0  0  0  0  0  0  0  0  0
    3.5564   -4.8699   35.7450 N   0  0  0  0  0  0  0  0  0  0  0  0
    4.4813   -4.6649   34.7486 C   0  0  0  0  0  0  0  0  0  0  0  0
    5.6525   -5.3230   34.7306 C   0  0  0  0  0  0  0  0  0  0  0  0
    6.5227   -5.2621   33.6741 N   0  0  0  0  0  0  0  0  0  0  0  0
    6.2799   -4.5771   32.5098 C   0  0  0  0  0  0  0  0  0  0  0  0
    7.0341   -4.6456   31.5470 O   0  0  0  0  0  0  0  0  0  0  0  0
    5.0474   -3.7524   32.4875 C   0  0  0  0  0  0  0  0  0  0  0  0
    4.7828   -2.9600   31.3615 C   0  0  0  0  0  0  0  0  0  0  0  0
    3.6672   -2.1288   31.3467 C   0  0  0  0  0  0  0  0  0  0  0  0
    2.8428   -2.0638   32.4642 C   0  0  0  0  0  0  0  0  0  0  0  0
    3.1164   -2.8520   33.5878 C   0  0  0  0  0  0  0  0  0  0  0  0
    4.1939   -3.7504   33.6075 C   0  0  0  0  0  0  0  0  0  0  0  0
    2.4418   -9.6472   40.1054 H   0  0  0  0  0  0  0  0  0  0  0  0
    1.0744   -8.8838   39.7343 H   0  0  0  0  0  0  0  0  0  0  0  0
    3.7287   -7.7438   39.3164 H   0  0  0  0  0  0  0  0  0  0  0  0
    2.8077   -8.6217   38.0844 H   0  0  0  0  0  0  0  0  0  0  0  0
   -0.6630   -5.0505   39.0180 H   0  0  0  0  0  0  0  0  0  0  0  0
    0.4485   -2.7769   37.7359 H   0  0  0  0  0  0  0  0  0  0  0  0
    1.9317   -2.9828   36.8349 H   0  0  0  0  0  0  0  0  0  0  0  0
   -0.8820   -3.9574   36.0970 H   0  0  0  0  0  0  0  0  0  0  0  0
    0.0830   -2.7387   35.2440 H   0  0  0  0  0  0  0  0  0  0  0  0
    0.7116   -5.5999   35.5113 H   0  0  0  0  0  0  0  0  0  0  0  0
   -1.1780   -5.0844   34.2049 H   0  0  0  0  0  0  0  0  0  0  0  0
   -0.2317   -4.1180   33.1658 H   0  0  0  0  0  0  0  0  0  0  0  0
    1.4784   -6.5745   31.9110 H   0  0  0  0  0  0  0  0  0  0  0  0
    1.7900   -5.2014   32.8088 H   0  0  0  0  0  0  0  0  0  0  0  0
   -1.4041   -4.2788   31.4757 H   0  0  0  0  0  0  0  0  0  0  0  0
   -1.6044   -2.8438   29.4935 H   0  0  0  0  0  0  0  0  0  0  0  0
    0.2391   -2.6799   27.8680 H   0  0  0  0  0  0  0  0  0  0  0  0
    2.2936   -4.0186   28.1790 H   0  0  0  0  0  0  0  0  0  0  0  0
    2.5578   -5.4166   30.1827 H   0  0  0  0  0  0  0  0  0  0  0  0
   -1.7631   -7.2591   33.9926 H   0  0  0  0  0  0  0  0  0  0  0  0
   -1.8319   -7.5586   36.3761 H   0  0  0  0  0  0  0  0  0  0  0  0
   -0.7046   -8.7505   36.2408 H   0  0  0  0  0  0  0  0  0  0  0  0
   -2.6449   -9.5480   37.1219 H   0  0  0  0  0  0  0  0  0  0  0  0
   -2.5311  -10.6733   36.0081 H   0  0  0  0  0  0  0  0  0  0  0  0
   -5.5216   -8.1761   36.7812 H   0  0  0  0  0  0  0  0  0  0  0  0
   -5.5258  -10.7164   34.7910 H   0  0  0  0  0  0  0  0  0  0  0  0
    2.5971   -4.5750   35.5988 H   0  0  0  0  0  0  0  0  0  0  0  0
    5.9617   -5.9957   35.5249 H   0  0  0  0  0  0  0  0  0  0  0  0
    7.3743   -5.8121   33.6939 H   0  0  0  0  0  0  0  0  0  0  0  0
    5.4521   -2.9817   30.5040 H   0  0  0  0  0  0  0  0  0  0  0  0
    3.4537   -1.5162   30.4738 H   0  0  0  0  0  0  0  0  0  0  0  0
    1.9865   -1.3933   32.4648 H   0  0  0  0  0  0  0  0  0  0  0  0
    2.4685   -2.7410   34.4481 H   0  0  0  0  0  0  0  0  0  0  0  0
  1  2  1  0
  2  3  1  0
  3  4  1  0
  4  5  1  0
  5  6  2  0
  6  7  1  0
  7  8  1  0
  8  9  1  0
  9 10  1  0
 10 11  1  0
 11 12  1  0
 12 13  1  0
 13 14  2  0
 14 15  1  0
 15 16  2  0
 16 17  1  0
 17 18  2  0
 11 19  1  0
 19 20  2  0
 19 21  1  0
 21 22  1  0
 22 23  1  0
 23 24  1  0
 24 25  1  0
 25 26  2  0
 26 27  1  0
 27 28  2  0
  6 29  1  0
 29 30  1  0
 30 31  2  0
 30 32  1  0
 32 33  1  0
 33 34  2  0
 34 35  1  0
 35 36  1  0
 36 37  2  0
 36 38  1  0
 38 39  2  0
 39 40  1  0
 40 41  2  0
 41 42  1  0
 42 43  2  0
 29  3  2  0
 43 33  1  0
 18 13  1  0
 28 24  1  0
 43 38  1  0
  1 44  1  0
  1 45  1  0
  2 46  1  0
  2 47  1  0
  5 48  1  0
  7 49  1  0
  7 50  1  0
  8 51  1  0
  8 52  1  0
  9 53  1  0
 10 54  1  0
 10 55  1  0
 12 56  1  0
 12 57  1  0
 14 58  1  0
 15 59  1  0
 16 60  1  0
 17 61  1  0
 18 62  1  0
 21 63  1  0
 22 64  1  0
 22 65  1  0
 23 66  1  0
 23 67  1  0
 25 68  1  0
 28 69  1  0
 32 70  1  0
 34 71  1  0
 35 72  1  0
 39 73  1  0
 40 74  1  0
 41 75  1  0
 42 76  1  0
M  END
>  <Energy>  (837) 
168.77537852202991

>  <compound_id>  (837) 
3763

>  <target_id>  (837) 
1

>  <reference_id>  (837) 
200

>  <inspiration_ids>  (837) 
[129, 200]

>  <energy_score>  (837) 
167.0628813363724

>  <distance_score>  (837) 
2.7089083999743817

>  <path>  (837) 
/opt/xchem-fragalysis-2/maxwin/BulkDock/SCRATCH/505734/C3763-P200/C3763-P200.minimised.mol

>  <scratch_subdir>  (837) 
/opt/xchem-fragalysis-2/maxwin/BulkDock/SCRATCH/505734/C3763-P200

>  <fragmenstein_runtime>  (837) 
36.222795248031616

>  <fragmenstein_outcome>  (837) 
too moved

>  <fragmenstein_mode>  (837) 
expansion

>  <fragmenstein_error>  (837) 


$$$$
C3764-P129
     RDKit          3D

 49 52  0  0  0  0  0  0  0  0999 V2000
    5.0122   -3.7627   34.6650 C   0  0  0  0  0  0  0  0  0  0  0  0
    4.0826   -4.0474   33.5137 N   0  0  0  0  0  0  0  0  0  0  0  0
    5.3884   -4.0934   32.7498 C   0  0  0  0  0  0  0  0  0  0  0  0
    5.0542   -4.2341   31.2389 C   0  0  0  0  0  0  0  0  0  0  0  0
    3.8346   -3.7905   30.6990 C   0  0  0  0  0  0  0  0  0  0  0  0
    3.5291   -3.9555   29.3454 C   0  0  0  0  0  0  0  0  0  0  0  0
    4.4477   -4.5600   28.4969 C   0  0  0  0  0  0  0  0  0  0  0  0
    5.6784   -4.9759   29.0010 C   0  0  0  0  0  0  0  0  0  0  0  0
    5.9860   -4.8033   30.3571 C   0  0  0  0  0  0  0  0  0  0  0  0
    3.1555   -5.1171   33.8713 C   0  0  0  0  0  0  0  0  0  0  0  0
    3.2463   -6.2751   33.7290 O   0  0  0  0  0  0  0  0  0  0  0  0
    2.0630   -4.3209   34.3563 N   0  0  0  0  0  0  0  0  0  0  0  0
    0.7176   -4.6885   34.7208 C   0  0  0  0  0  0  0  0  0  0  0  0
    0.0208   -4.7191   33.3608 C   0  0  0  0  0  0  0  0  0  0  0  0
    0.0129   -3.6235   32.5328 C   0  0  0  0  0  0  0  0  0  0  0  0
    0.4207   -2.2715   32.9865 C   0  0  0  0  0  0  0  0  0  0  0  0
   -0.1627   -1.6182   34.0638 C   0  0  0  0  0  0  0  0  0  0  0  0
    0.2857   -0.4251   34.5277 N   0  0  0  0  0  0  0  0  0  0  0  0
    1.3159    0.1185   33.8419 C   0  0  0  0  0  0  0  0  0  0  0  0
    1.8805   -0.5045   32.7469 C   0  0  0  0  0  0  0  0  0  0  0  0
    1.4497   -1.7056   32.3041 N   0  0  0  0  0  0  0  0  0  0  0  0
   -0.1656   -3.8446   31.0948 C   0  0  0  0  0  0  0  0  0  0  0  0
   -0.2996   -5.0670   30.5687 C   0  0  0  0  0  0  0  0  0  0  0  0
   -0.4637   -6.1772   31.4251 C   0  0  0  0  0  0  0  0  0  0  0  0
   -0.7635   -7.4264   31.1585 N   0  0  0  0  0  0  0  0  0  0  0  0
   -0.8619   -8.0818   32.3526 N   0  0  0  0  0  0  0  0  0  0  0  0
   -0.6303   -7.2305   33.3301 C   0  0  0  0  0  0  0  0  0  0  0  0
   -0.7269   -7.5164   34.6471 N   0  0  0  0  0  0  0  0  0  0  0  0
   -0.3322   -5.9764   32.7987 N   0  0  0  0  0  0  0  0  0  0  0  0
    4.3653   -3.6600   35.5495 H   0  0  0  0  0  0  0  0  0  0  0  0
    5.6739   -4.5987   34.9404 H   0  0  0  0  0  0  0  0  0  0  0  0
    5.5137   -2.7854   34.6113 H   0  0  0  0  0  0  0  0  0  0  0  0
    5.9642   -5.0000   32.9932 H   0  0  0  0  0  0  0  0  0  0  0  0
    5.9797   -3.1649   32.7781 H   0  0  0  0  0  0  0  0  0  0  0  0
    3.0935   -3.3188   31.3368 H   0  0  0  0  0  0  0  0  0  0  0  0
    2.5741   -3.6048   28.9632 H   0  0  0  0  0  0  0  0  0  0  0  0
    4.2221   -4.6838   27.4417 H   0  0  0  0  0  0  0  0  0  0  0  0
    6.4115   -5.4269   28.3354 H   0  0  0  0  0  0  0  0  0  0  0  0
    6.9531   -5.1411   30.7237 H   0  0  0  0  0  0  0  0  0  0  0  0
    2.3031   -3.3414   34.2670 H   0  0  0  0  0  0  0  0  0  0  0  0
    0.2954   -3.9570   35.4115 H   0  0  0  0  0  0  0  0  0  0  0  0
    0.7767   -5.6585   35.2117 H   0  0  0  0  0  0  0  0  0  0  0  0
   -1.0068   -2.0383   34.6014 H   0  0  0  0  0  0  0  0  0  0  0  0
    1.6702    1.0800   34.1960 H   0  0  0  0  0  0  0  0  0  0  0  0
    2.6997   -0.0577   32.1953 H   0  0  0  0  0  0  0  0  0  0  0  0
   -0.0741   -2.9827   30.4356 H   0  0  0  0  0  0  0  0  0  0  0  0
   -0.3491   -5.2064   29.4961 H   0  0  0  0  0  0  0  0  0  0  0  0
   -1.0473   -8.4766   34.8485 H   0  0  0  0  0  0  0  0  0  0  0  0
   -1.1597   -6.8522   35.2763 H   0  0  0  0  0  0  0  0  0  0  0  0
  1  2  1  0
  2  3  1  0
  3  4  1  0
  4  5  2  0
  5  6  1  0
  6  7  2  0
  7  8  1  0
  8  9  2  0
  2 10  1  0
 10 11  2  0
 10 12  1  0
 12 13  1  0
 13 14  1  0
 14 15  2  0
 15 16  1  0
 16 17  2  0
 17 18  1  0
 18 19  2  0
 19 20  1  0
 20 21  2  0
 15 22  1  0
 22 23  2  0
 23 24  1  0
 24 25  2  0
 25 26  1  0
 26 27  2  0
 27 28  1  0
 27 29  1  0
  9  4  1  0
 29 14  1  0
 21 16  1  0
 29 24  1  0
  1 30  1  0
  1 31  1  0
  1 32  1  0
  3 33  1  0
  3 34  1  0
  5 35  1  0
  6 36  1  0
  7 37  1  0
  8 38  1  0
  9 39  1  0
 12 40  1  0
 13 41  1  0
 13 42  1  0
 17 43  1  0
 19 44  1  0
 20 45  1  0
 22 46  1  0
 23 47  1  0
 28 48  1  0
 28 49  1  0
M  END
>  <Energy>  (838) 
106.17291101922304

>  <compound_id>  (838) 
3764

>  <target_id>  (838) 
1

>  <reference_id>  (838) 
129

>  <inspiration_ids>  (838) 
[129, 201]

>  <energy_score>  (838) 
10.571612918593246

>  <distance_score>  (838) 
2.9632571744466056

>  <path>  (838) 
/opt/xchem-fragalysis-2/maxwin/BulkDock/SCRATCH/505734/C3764-P129/C3764-P129.minimised.mol

>  <scratch_subdir>  (838) 
/opt/xchem-fragalysis-2/maxwin/BulkDock/SCRATCH/505734/C3764-P129

>  <fragmenstein_runtime>  (838) 
7.806077718734741

>  <fragmenstein_outcome>  (838) 
too moved

>  <fragmenstein_mode>  (838) 
expansion

>  <fragmenstein_error>  (838) 


$$$$
C3764-P201
     RDKit          3D

 49 52  0  0  0  0  0  0  0  0999 V2000
    5.0225   -4.0412   34.4819 C   0  0  0  0  0  0  0  0  0  0  0  0
    4.0542   -4.2870   33.3527 N   0  0  0  0  0  0  0  0  0  0  0  0
    5.3345   -4.3397   32.5508 C   0  0  0  0  0  0  0  0  0  0  0  0
    4.9847   -4.5564   31.0514 C   0  0  0  0  0  0  0  0  0  0  0  0
    5.9841   -5.0062   30.1721 C   0  0  0  0  0  0  0  0  0  0  0  0
    5.6954   -5.2576   28.8264 C   0  0  0  0  0  0  0  0  0  0  0  0
    4.4065   -5.0564   28.3329 C   0  0  0  0  0  0  0  0  0  0  0  0
    3.4103   -4.5838   29.1793 C   0  0  0  0  0  0  0  0  0  0  0  0
    3.7022   -4.3254   30.5219 C   0  0  0  0  0  0  0  0  0  0  0  0
    3.1192   -5.3479   33.7165 C   0  0  0  0  0  0  0  0  0  0  0  0
    3.1855   -6.5044   33.5487 O   0  0  0  0  0  0  0  0  0  0  0  0
    2.0563   -4.5435   34.2491 N   0  0  0  0  0  0  0  0  0  0  0  0
    0.7162   -4.8952   34.6464 C   0  0  0  0  0  0  0  0  0  0  0  0
   -0.0136   -4.9239   33.3053 C   0  0  0  0  0  0  0  0  0  0  0  0
   -0.0073   -3.8416   32.4598 C   0  0  0  0  0  0  0  0  0  0  0  0
    0.4679   -2.4979   32.8707 C   0  0  0  0  0  0  0  0  0  0  0  0
   -0.0511   -1.8007   33.9538 C   0  0  0  0  0  0  0  0  0  0  0  0
    0.4584   -0.6161   34.3749 N   0  0  0  0  0  0  0  0  0  0  0  0
    1.4830   -0.1273   33.6405 C   0  0  0  0  0  0  0  0  0  0  0  0
    1.9850   -0.7951   32.5410 C   0  0  0  0  0  0  0  0  0  0  0  0
    1.4940   -1.9881   32.1404 N   0  0  0  0  0  0  0  0  0  0  0  0
   -0.2462   -4.0784   31.0347 C   0  0  0  0  0  0  0  0  0  0  0  0
   -0.4631   -5.3012   30.5391 C   0  0  0  0  0  0  0  0  0  0  0  0
   -0.6409   -6.3887   31.4153 C   0  0  0  0  0  0  0  0  0  0  0  0
   -0.9919   -7.6292   31.1761 N   0  0  0  0  0  0  0  0  0  0  0  0
   -1.0358   -8.2717   32.3795 N   0  0  0  0  0  0  0  0  0  0  0  0
   -0.7309   -7.4179   33.3346 C   0  0  0  0  0  0  0  0  0  0  0  0
   -0.7530   -7.6911   34.6578 N   0  0  0  0  0  0  0  0  0  0  0  0
   -0.4346   -6.1758   32.7774 N   0  0  0  0  0  0  0  0  0  0  0  0
    5.6491   -4.9080   34.7432 H   0  0  0  0  0  0  0  0  0  0  0  0
    4.3988   -3.9114   35.3795 H   0  0  0  0  0  0  0  0  0  0  0  0
    5.5688   -3.0885   34.4218 H   0  0  0  0  0  0  0  0  0  0  0  0
    5.9481   -5.2182   32.8064 H   0  0  0  0  0  0  0  0  0  0  0  0
    5.8911   -3.3897   32.5371 H   0  0  0  0  0  0  0  0  0  0  0  0
    6.9958   -5.1792   30.5336 H   0  0  0  0  0  0  0  0  0  0  0  0
    6.4828   -5.6051   28.1609 H   0  0  0  0  0  0  0  0  0  0  0  0
    4.1919   -5.2418   27.2841 H   0  0  0  0  0  0  0  0  0  0  0  0
    2.4089   -4.3967   28.8015 H   0  0  0  0  0  0  0  0  0  0  0  0
    2.9053   -3.9477   31.1562 H   0  0  0  0  0  0  0  0  0  0  0  0
    2.3111   -3.5669   34.1719 H   0  0  0  0  0  0  0  0  0  0  0  0
    0.3171   -4.1558   35.3426 H   0  0  0  0  0  0  0  0  0  0  0  0
    0.7803   -5.8625   35.1410 H   0  0  0  0  0  0  0  0  0  0  0  0
   -0.8898   -2.1785   34.5298 H   0  0  0  0  0  0  0  0  0  0  0  0
    1.8854    0.8276   33.9592 H   0  0  0  0  0  0  0  0  0  0  0  0
    2.8002   -0.3921   31.9510 H   0  0  0  0  0  0  0  0  0  0  0  0
   -0.1436   -3.2322   30.3570 H   0  0  0  0  0  0  0  0  0  0  0  0
   -0.5714   -5.4539   29.4767 H   0  0  0  0  0  0  0  0  0  0  0  0
   -1.0703   -8.6520   34.8739 H   0  0  0  0  0  0  0  0  0  0  0  0
   -1.1860   -7.0295   35.2898 H   0  0  0  0  0  0  0  0  0  0  0  0
  1  2  1  0
  2  3  1  0
  3  4  1  0
  4  5  2  0
  5  6  1  0
  6  7  2  0
  7  8  1  0
  8  9  2  0
  2 10  1  0
 10 11  2  0
 10 12  1  0
 12 13  1  0
 13 14  1  0
 14 15  2  0
 15 16  1  0
 16 17  2  0
 17 18  1  0
 18 19  2  0
 19 20  1  0
 20 21  2  0
 15 22  1  0
 22 23  2  0
 23 24  1  0
 24 25  2  0
 25 26  1  0
 26 27  2  0
 27 28  1  0
 27 29  1  0
  9  4  1  0
 29 14  1  0
 21 16  1  0
 29 24  1  0
  1 30  1  0
  1 31  1  0
  1 32  1  0
  3 33  1  0
  3 34  1  0
  5 35  1  0
  6 36  1  0
  7 37  1  0
  8 38  1  0
  9 39  1  0
 12 40  1  0
 13 41  1  0
 13 42  1  0
 17 43  1  0
 19 44  1  0
 20 45  1  0
 22 46  1  0
 23 47  1  0
 28 48  1  0
 28 49  1  0
M  END
>  <Energy>  (839) 
106.28191924557557

>  <compound_id>  (839) 
3764

>  <target_id>  (839) 
1

>  <reference_id>  (839) 
201

>  <inspiration_ids>  (839) 
[129, 201]

>  <energy_score>  (839) 
10.680621144942648

>  <distance_score>  (839) 
2.629917482077278

>  <path>  (839) 
/opt/xchem-fragalysis-2/maxwin/BulkDock/SCRATCH/505734/C3764-P201/C3764-P201.minimised.mol

>  <scratch_subdir>  (839) 
/opt/xchem-fragalysis-2/maxwin/BulkDock/SCRATCH/505734/C3764-P201

>  <fragmenstein_runtime>  (839) 
8.485735416412354

>  <fragmenstein_outcome>  (839) 
too moved

>  <fragmenstein_mode>  (839) 
expansion

>  <fragmenstein_error>  (839) 


$$$$
C3764-P129
     RDKit          3D

 49 52  0  0  0  0  0  0  0  0999 V2000
   -1.2793   -1.3906   28.6316 C   0  0  0  0  0  0  0  0  0  0  0  0
   -0.7177   -1.7175   29.9745 N   0  0  0  0  0  0  0  0  0  0  0  0
   -0.9865   -0.2340   30.2078 C   0  0  0  0  0  0  0  0  0  0  0  0
    0.0361    0.7421   29.6395 C   0  0  0  0  0  0  0  0  0  0  0  0
    1.3894    0.6280   29.9777 C   0  0  0  0  0  0  0  0  0  0  0  0
    2.3276    1.5056   29.4368 C   0  0  0  0  0  0  0  0  0  0  0  0
    1.9222    2.5121   28.5616 C   0  0  0  0  0  0  0  0  0  0  0  0
    0.5774    2.6398   28.2224 C   0  0  0  0  0  0  0  0  0  0  0  0
   -0.3621    1.7574   28.7548 C   0  0  0  0  0  0  0  0  0  0  0  0
   -1.2758   -2.5078   31.0694 C   0  0  0  0  0  0  0  0  0  0  0  0
   -2.3355   -2.9995   31.1873 O   0  0  0  0  0  0  0  0  0  0  0  0
   -0.1066   -2.5863   31.9141 N   0  0  0  0  0  0  0  0  0  0  0  0
    0.1503   -3.3685   33.1049 C   0  0  0  0  0  0  0  0  0  0  0  0
    0.5253   -4.7250   32.5176 C   0  0  0  0  0  0  0  0  0  0  0  0
    1.4464   -4.8480   31.5150 C   0  0  0  0  0  0  0  0  0  0  0  0
    2.5111   -3.8402   31.3151 C   0  0  0  0  0  0  0  0  0  0  0  0
    3.3818   -3.4833   32.3448 C   0  0  0  0  0  0  0  0  0  0  0  0
    4.3505   -2.5466   32.2039 N   0  0  0  0  0  0  0  0  0  0  0  0
    4.4354   -1.9925   30.9746 C   0  0  0  0  0  0  0  0  0  0  0  0
    3.5923   -2.3574   29.9386 C   0  0  0  0  0  0  0  0  0  0  0  0
    2.6188   -3.2856   30.0860 N   0  0  0  0  0  0  0  0  0  0  0  0
    1.2560   -5.9412   30.5583 C   0  0  0  0  0  0  0  0  0  0  0  0
    0.3620   -6.9245   30.7538 C   0  0  0  0  0  0  0  0  0  0  0  0
   -0.3665   -6.9538   31.9594 C   0  0  0  0  0  0  0  0  0  0  0  0
   -1.1406   -7.8707   32.4856 N   0  0  0  0  0  0  0  0  0  0  0  0
   -1.5124   -7.4248   33.7272 N   0  0  0  0  0  0  0  0  0  0  0  0
   -1.0130   -6.2247   33.9067 C   0  0  0  0  0  0  0  0  0  0  0  0
   -1.0999   -5.4799   35.0373 N   0  0  0  0  0  0  0  0  0  0  0  0
   -0.2825   -5.8469   32.7937 N   0  0  0  0  0  0  0  0  0  0  0  0
   -2.3162   -1.0508   28.5819 H   0  0  0  0  0  0  0  0  0  0  0  0
   -0.5866   -0.8718   27.9597 H   0  0  0  0  0  0  0  0  0  0  0  0
   -1.3527   -2.3864   28.1761 H   0  0  0  0  0  0  0  0  0  0  0  0
   -2.0377    0.0870   30.1032 H   0  0  0  0  0  0  0  0  0  0  0  0
   -0.8658   -0.1035   31.2972 H   0  0  0  0  0  0  0  0  0  0  0  0
    1.7163   -0.1468   30.6643 H   0  0  0  0  0  0  0  0  0  0  0  0
    3.3765    1.4154   29.7047 H   0  0  0  0  0  0  0  0  0  0  0  0
    2.6528    3.2017   28.1470 H   0  0  0  0  0  0  0  0  0  0  0  0
    0.2567    3.4280   27.5454 H   0  0  0  0  0  0  0  0  0  0  0  0
   -1.4075    1.8679   28.4686 H   0  0  0  0  0  0  0  0  0  0  0  0
    0.6600   -2.1032   31.4630 H   0  0  0  0  0  0  0  0  0  0  0  0
   -0.7808   -3.3795   33.6707 H   0  0  0  0  0  0  0  0  0  0  0  0
    0.9482   -2.9136   33.6945 H   0  0  0  0  0  0  0  0  0  0  0  0
    3.3241   -3.9419   33.3265 H   0  0  0  0  0  0  0  0  0  0  0  0
    5.2077   -1.2434   30.8396 H   0  0  0  0  0  0  0  0  0  0  0  0
    3.6705   -1.9053   28.9554 H   0  0  0  0  0  0  0  0  0  0  0  0
    1.8346   -5.9013   29.6380 H   0  0  0  0  0  0  0  0  0  0  0  0
    0.2176   -7.7275   30.0417 H   0  0  0  0  0  0  0  0  0  0  0  0
   -1.4176   -6.0663   35.8110 H   0  0  0  0  0  0  0  0  0  0  0  0
   -1.8571   -4.7865   34.9494 H   0  0  0  0  0  0  0  0  0  0  0  0
  1  2  1  0
  2  3  1  0
  3  4  1  0
  4  5  2  0
  5  6  1  0
  6  7  2  0
  7  8  1  0
  8  9  2  0
  2 10  1  0
 10 11  2  0
 10 12  1  0
 12 13  1  0
 13 14  1  0
 14 15  2  0
 15 16  1  0
 16 17  2  0
 17 18  1  0
 18 19  2  0
 19 20  1  0
 20 21  2  0
 15 22  1  0
 22 23  2  0
 23 24  1  0
 24 25  2  0
 25 26  1  0
 26 27  2  0
 27 28  1  0
 27 29  1  0
  9  4  1  0
 29 14  1  0
 21 16  1  0
 29 24  1  0
  1 30  1  0
  1 31  1  0
  1 32  1  0
  3 33  1  0
  3 34  1  0
  5 35  1  0
  6 36  1  0
  7 37  1  0
  8 38  1  0
  9 39  1  0
 12 40  1  0
 13 41  1  0
 13 42  1  0
 17 43  1  0
 19 44  1  0
 20 45  1  0
 22 46  1  0
 23 47  1  0
 28 48  1  0
 28 49  1  0
M  END
>  <Energy>  (840) 
110.15929324150805

>  <compound_id>  (840) 
3764

>  <target_id>  (840) 
1

>  <reference_id>  (840) 
129

>  <inspiration_ids>  (840) 
[129, 202]

>  <energy_score>  (840) 
31.974040529327397

>  <distance_score>  (840) 
1.6540506550789562

>  <path>  (840) 
/opt/xchem-fragalysis-2/maxwin/BulkDock/SCRATCH/505734/C3764-P129/C3764-P129.minimised.mol

>  <scratch_subdir>  (840) 
/opt/xchem-fragalysis-2/maxwin/BulkDock/SCRATCH/505734/C3764-P129

>  <fragmenstein_runtime>  (840) 
9.805269002914429

>  <fragmenstein_outcome>  (840) 
too moved

>  <fragmenstein_mode>  (840) 
expansion

>  <fragmenstein_error>  (840) 


$$$$
C3764-P202
     RDKit          3D

 49 52  0  0  0  0  0  0  0  0999 V2000
   -1.2534   -1.4109   28.6558 C   0  0  0  0  0  0  0  0  0  0  0  0
   -0.7058   -1.7668   29.9986 N   0  0  0  0  0  0  0  0  0  0  0  0
   -1.0083   -0.2959   30.2717 C   0  0  0  0  0  0  0  0  0  0  0  0
   -0.0041    0.7186   29.7414 C   0  0  0  0  0  0  0  0  0  0  0  0
    1.3475    0.6292   30.0944 C   0  0  0  0  0  0  0  0  0  0  0  0
    2.2703    1.5424   29.5870 C   0  0  0  0  0  0  0  0  0  0  0  0
    1.8506    2.5597   28.7314 C   0  0  0  0  0  0  0  0  0  0  0  0
    0.5075    2.6619   28.3771 C   0  0  0  0  0  0  0  0  0  0  0  0
   -0.4161    1.7434   28.8751 C   0  0  0  0  0  0  0  0  0  0  0  0
   -1.2648   -2.6002   31.0605 C   0  0  0  0  0  0  0  0  0  0  0  0
   -2.3162   -3.1162   31.1468 O   0  0  0  0  0  0  0  0  0  0  0  0
   -0.1070   -2.6807   31.9217 N   0  0  0  0  0  0  0  0  0  0  0  0
    0.1470   -3.4922   33.0925 C   0  0  0  0  0  0  0  0  0  0  0  0
    0.5278   -4.8365   32.4809 C   0  0  0  0  0  0  0  0  0  0  0  0
    1.4422   -4.9416   31.4704 C   0  0  0  0  0  0  0  0  0  0  0  0
    2.4885   -3.9155   31.2635 C   0  0  0  0  0  0  0  0  0  0  0  0
    3.3625   -3.5454   32.2858 C   0  0  0  0  0  0  0  0  0  0  0  0
    4.3062   -2.5841   32.1409 N   0  0  0  0  0  0  0  0  0  0  0  0
    4.3638   -2.0193   30.9148 C   0  0  0  0  0  0  0  0  0  0  0  0
    3.5179   -2.3970   29.8857 C   0  0  0  0  0  0  0  0  0  0  0  0
    2.5697   -3.3507   30.0369 N   0  0  0  0  0  0  0  0  0  0  0  0
    1.2682   -6.0398   30.5167 C   0  0  0  0  0  0  0  0  0  0  0  0
    0.3891   -7.0366   30.7117 C   0  0  0  0  0  0  0  0  0  0  0  0
   -0.3532   -7.0681   31.9098 C   0  0  0  0  0  0  0  0  0  0  0  0
   -1.1468   -7.9781   32.4210 N   0  0  0  0  0  0  0  0  0  0  0  0
   -1.5161   -7.5432   33.6686 N   0  0  0  0  0  0  0  0  0  0  0  0
   -0.9878   -6.3589   33.8681 C   0  0  0  0  0  0  0  0  0  0  0  0
   -1.0472   -5.6329   35.0130 N   0  0  0  0  0  0  0  0  0  0  0  0
   -0.2682   -5.9676   32.7526 N   0  0  0  0  0  0  0  0  0  0  0  0
   -2.2846   -1.0565   28.5909 H   0  0  0  0  0  0  0  0  0  0  0  0
   -0.5436   -0.8838   28.0084 H   0  0  0  0  0  0  0  0  0  0  0  0
   -1.3303   -2.3972   28.1787 H   0  0  0  0  0  0  0  0  0  0  0  0
   -2.0654    0.0058   30.1724 H   0  0  0  0  0  0  0  0  0  0  0  0
   -0.8970   -0.1958   31.3653 H   0  0  0  0  0  0  0  0  0  0  0  0
    1.6854   -0.1537   30.7666 H   0  0  0  0  0  0  0  0  0  0  0  0
    3.3178    1.4714   29.8665 H   0  0  0  0  0  0  0  0  0  0  0  0
    2.5688    3.2774   28.3434 H   0  0  0  0  0  0  0  0  0  0  0  0
    0.1763    3.4588   27.7152 H   0  0  0  0  0  0  0  0  0  0  0  0
   -1.4596    1.8335   28.5763 H   0  0  0  0  0  0  0  0  0  0  0  0
    0.6566   -2.1693   31.4974 H   0  0  0  0  0  0  0  0  0  0  0  0
   -0.7875   -3.5171   33.6522 H   0  0  0  0  0  0  0  0  0  0  0  0
    0.9406   -3.0502   33.6977 H   0  0  0  0  0  0  0  0  0  0  0  0
    3.3266   -4.0112   33.2651 H   0  0  0  0  0  0  0  0  0  0  0  0
    5.1160   -1.2506   30.7768 H   0  0  0  0  0  0  0  0  0  0  0  0
    3.5733   -1.9352   28.9056 H   0  0  0  0  0  0  0  0  0  0  0  0
    1.8516   -5.9953   29.5995 H   0  0  0  0  0  0  0  0  0  0  0  0
    0.2663   -7.8453   30.0018 H   0  0  0  0  0  0  0  0  0  0  0  0
   -1.3591   -6.2199   35.7863 H   0  0  0  0  0  0  0  0  0  0  0  0
   -1.8025   -4.9342   34.9413 H   0  0  0  0  0  0  0  0  0  0  0  0
  1  2  1  0
  2  3  1  0
  3  4  1  0
  4  5  2  0
  5  6  1  0
  6  7  2  0
  7  8  1  0
  8  9  2  0
  2 10  1  0
 10 11  2  0
 10 12  1  0
 12 13  1  0
 13 14  1  0
 14 15  2  0
 15 16  1  0
 16 17  2  0
 17 18  1  0
 18 19  2  0
 19 20  1  0
 20 21  2  0
 15 22  1  0
 22 23  2  0
 23 24  1  0
 24 25  2  0
 25 26  1  0
 26 27  2  0
 27 28  1  0
 27 29  1  0
  9  4  1  0
 29 14  1  0
 21 16  1  0
 29 24  1  0
  1 30  1  0
  1 31  1  0
  1 32  1  0
  3 33  1  0
  3 34  1  0
  5 35  1  0
  6 36  1  0
  7 37  1  0
  8 38  1  0
  9 39  1  0
 12 40  1  0
 13 41  1  0
 13 42  1  0
 17 43  1  0
 19 44  1  0
 20 45  1  0
 22 46  1  0
 23 47  1  0
 28 48  1  0
 28 49  1  0
M  END
>  <Energy>  (841) 
109.67131956049242

>  <compound_id>  (841) 
3764

>  <target_id>  (841) 
1

>  <reference_id>  (841) 
202

>  <inspiration_ids>  (841) 
[129, 202]

>  <energy_score>  (841) 
31.486066848312362

>  <distance_score>  (841) 
1.6393549471397384

>  <path>  (841) 
/opt/xchem-fragalysis-2/maxwin/BulkDock/SCRATCH/505734/C3764-P202/C3764-P202.minimised.mol

>  <scratch_subdir>  (841) 
/opt/xchem-fragalysis-2/maxwin/BulkDock/SCRATCH/505734/C3764-P202

>  <fragmenstein_runtime>  (841) 
11.017836093902588

>  <fragmenstein_outcome>  (841) 
too moved

>  <fragmenstein_mode>  (841) 
expansion

>  <fragmenstein_error>  (841) 


$$$$
C3765-P130
     RDKit          3D

 51 54  0  0  0  0  0  0  0  0999 V2000
    3.1332   -0.9689   29.7359 C   0  0  0  0  0  0  0  0  0  0  0  0
    2.1858   -1.3936   30.8392 N   0  0  0  0  0  0  0  0  0  0  0  0
    1.2796   -1.6667   29.6654 C   0  0  0  0  0  0  0  0  0  0  0  0
    0.3796   -0.5101   29.2229 C   0  0  0  0  0  0  0  0  0  0  0  0
    0.5084    0.7987   29.7156 C   0  0  0  0  0  0  0  0  0  0  0  0
   -0.2542    1.8413   29.1855 C   0  0  0  0  0  0  0  0  0  0  0  0
   -1.2033    1.5857   28.2006 C   0  0  0  0  0  0  0  0  0  0  0  0
   -1.3817    0.2858   27.7412 C   0  0  0  0  0  0  0  0  0  0  0  0
   -0.6011   -0.7535   28.2517 C   0  0  0  0  0  0  0  0  0  0  0  0
    2.8633   -2.3157   31.7527 C   0  0  0  0  0  0  0  0  0  0  0  0
    2.9339   -3.4924   31.7350 O   0  0  0  0  0  0  0  0  0  0  0  0
    3.3439   -1.3467   32.7451 N   0  0  0  0  0  0  0  0  0  0  0  0
    4.0881   -1.5222   33.8854 C   0  0  0  0  0  0  0  0  0  0  0  0
    4.4870   -0.4189   34.5442 C   0  0  0  0  0  0  0  0  0  0  0  0
    5.5172   -0.3301   35.5541 C   0  0  0  0  0  0  0  0  0  0  0  0
    6.5863   -1.1390   35.5544 C   0  0  0  0  0  0  0  0  0  0  0  0
    7.7500   -0.9541   36.2806 N   0  0  0  0  0  0  0  0  0  0  0  0
    8.7219   -1.8680   35.9014 N   0  0  0  0  0  0  0  0  0  0  0  0
    8.0745   -2.6481   35.0691 C   0  0  0  0  0  0  0  0  0  0  0  0
    6.7668   -2.2872   34.7728 N   0  0  0  0  0  0  0  0  0  0  0  0
    5.7984   -3.2383   34.5916 N   0  0  0  0  0  0  0  0  0  0  0  0
    4.5896   -2.8700   34.3057 C   0  0  0  0  0  0  0  0  0  0  0  0
    3.6981   -3.8970   34.4849 N   0  0  0  0  0  0  0  0  0  0  0  0
    2.1783   -3.8991   34.5219 C   0  0  0  0  0  0  0  0  0  0  0  0
    1.4120   -3.0254   34.3264 O   0  0  0  0  0  0  0  0  0  0  0  0
    1.9392   -5.3475   34.8253 N   0  0  0  0  0  0  0  0  0  0  0  0
    0.7822   -6.0683   34.8692 C   0  0  0  0  0  0  0  0  0  0  0  0
   -0.5447   -5.7174   34.5657 C   0  0  0  0  0  0  0  0  0  0  0  0
   -1.3798   -6.7596   34.6772 N   0  0  0  0  0  0  0  0  0  0  0  0
   -0.5857   -7.7666   35.0626 N   0  0  0  0  0  0  0  0  0  0  0  0
    0.7184   -7.3914   35.2235 C   0  0  0  0  0  0  0  0  0  0  0  0
    2.8197   -0.1729   29.0497 H   0  0  0  0  0  0  0  0  0  0  0  0
    3.5843   -1.8302   29.2170 H   0  0  0  0  0  0  0  0  0  0  0  0
    3.9916   -0.5210   30.2590 H   0  0  0  0  0  0  0  0  0  0  0  0
    1.6781   -2.2698   28.8298 H   0  0  0  0  0  0  0  0  0  0  0  0
    0.5704   -2.3805   30.1169 H   0  0  0  0  0  0  0  0  0  0  0  0
    1.2282    1.0314   30.4957 H   0  0  0  0  0  0  0  0  0  0  0  0
   -0.1120    2.8583   29.5438 H   0  0  0  0  0  0  0  0  0  0  0  0
   -1.8126    2.3947   27.8032 H   0  0  0  0  0  0  0  0  0  0  0  0
   -2.1202    0.0705   26.9723 H   0  0  0  0  0  0  0  0  0  0  0  0
   -0.7603   -1.7581   27.8653 H   0  0  0  0  0  0  0  0  0  0  0  0
    3.0381   -0.4212   32.4795 H   0  0  0  0  0  0  0  0  0  0  0  0
    4.1068    0.5534   34.2354 H   0  0  0  0  0  0  0  0  0  0  0  0
    5.4968    0.5427   36.1992 H   0  0  0  0  0  0  0  0  0  0  0  0
    7.9988   -0.0310   36.6206 H   0  0  0  0  0  0  0  0  0  0  0  0
    8.4611   -3.5597   34.5902 H   0  0  0  0  0  0  0  0  0  0  0  0
    4.0343   -4.8252   34.6194 H   0  0  0  0  0  0  0  0  0  0  0  0
    2.8131   -5.7943   35.0175 H   0  0  0  0  0  0  0  0  0  0  0  0
   -0.9328   -4.7550   34.2542 H   0  0  0  0  0  0  0  0  0  0  0  0
   -0.9991   -8.6941   35.1593 H   0  0  0  0  0  0  0  0  0  0  0  0
    1.4677   -8.0877   35.5606 H   0  0  0  0  0  0  0  0  0  0  0  0
  1  2  1  0
  2  3  1  0
  3  4  1  0
  4  5  2  0
  5  6  1  0
  6  7  2  0
  7  8  1  0
  8  9  2  0
  2 10  1  0
 10 11  2  0
 10 12  1  0
 12 13  1  0
 13 14  2  0
 14 15  1  0
 15 16  2  0
 16 17  1  0
 17 18  1  0
 18 19  2  0
 19 20  1  0
 20 21  1  0
 21 22  2  0
 22 23  1  0
 23 24  1  0
 24 25  2  0
 24 26  1  0
 26 27  1  0
 27 28  1  0
 28 29  2  0
 29 30  1  0
 30 31  1  0
  9  4  1  0
 22 13  1  0
 31 27  2  0
 20 16  1  0
  1 32  1  0
  1 33  1  0
  1 34  1  0
  3 35  1  0
  3 36  1  0
  5 37  1  0
  6 38  1  0
  7 39  1  0
  8 40  1  0
  9 41  1  0
 12 42  1  0
 14 43  1  0
 15 44  1  0
 17 45  1  0
 19 46  1  0
 23 47  1  0
 26 48  1  0
 28 49  1  0
 30 50  1  0
 31 51  1  0
M  END
>  <Energy>  (842) 
89.05751523589602

>  <compound_id>  (842) 
3765

>  <target_id>  (842) 
1

>  <reference_id>  (842) 
130

>  <inspiration_ids>  (842) 
[130, 25]

>  <energy_score>  (842) 
9.717977756022577

>  <distance_score>  (842) 
3.7107777691347827

>  <path>  (842) 
/opt/xchem-fragalysis-2/maxwin/BulkDock/SCRATCH/505734/C3765-P130/C3765-P130.minimised.mol

>  <scratch_subdir>  (842) 
/opt/xchem-fragalysis-2/maxwin/BulkDock/SCRATCH/505734/C3765-P130

>  <fragmenstein_runtime>  (842) 
9.871661186218262

>  <fragmenstein_outcome>  (842) 
too moved

>  <fragmenstein_mode>  (842) 
expansion

>  <fragmenstein_error>  (842) 


$$$$
C3765-P25
     RDKit          3D

 51 54  0  0  0  0  0  0  0  0999 V2000
   -1.5404   -2.8726   32.2900 C   0  0  0  0  0  0  0  0  0  0  0  0
   -0.6648   -1.6507   32.2550 N   0  0  0  0  0  0  0  0  0  0  0  0
   -1.0180   -1.7037   30.7848 C   0  0  0  0  0  0  0  0  0  0  0  0
   -0.3833   -0.5528   29.9960 C   0  0  0  0  0  0  0  0  0  0  0  0
    0.6278    0.2724   30.5038 C   0  0  0  0  0  0  0  0  0  0  0  0
    1.1256    1.3349   29.7438 C   0  0  0  0  0  0  0  0  0  0  0  0
    0.6304    1.5779   28.4638 C   0  0  0  0  0  0  0  0  0  0  0  0
   -0.3455    0.7432   27.9297 C   0  0  0  0  0  0  0  0  0  0  0  0
   -0.8371   -0.3225   28.6834 C   0  0  0  0  0  0  0  0  0  0  0  0
   -1.0747   -0.7090   33.2987 C   0  0  0  0  0  0  0  0  0  0  0  0
   -1.8477    0.1807   33.2609 O   0  0  0  0  0  0  0  0  0  0  0  0
   -0.1660   -1.1406   34.3770 N   0  0  0  0  0  0  0  0  0  0  0  0
    0.1034   -0.5849   35.5942 C   0  0  0  0  0  0  0  0  0  0  0  0
   -0.3523    0.6432   35.9029 C   0  0  0  0  0  0  0  0  0  0  0  0
   -0.0368    1.4655   37.0467 C   0  0  0  0  0  0  0  0  0  0  0  0
    1.1279    1.3901   37.7001 C   0  0  0  0  0  0  0  0  0  0  0  0
    1.6100    2.3093   38.6176 N   0  0  0  0  0  0  0  0  0  0  0  0
    2.9243    2.0188   38.9590 N   0  0  0  0  0  0  0  0  0  0  0  0
    3.1362    0.8776   38.3490 C   0  0  0  0  0  0  0  0  0  0  0  0
    2.1075    0.4100   37.5419 N   0  0  0  0  0  0  0  0  0  0  0  0
    1.8392   -0.9213   37.4410 N   0  0  0  0  0  0  0  0  0  0  0  0
    0.9559   -1.3590   36.6014 C   0  0  0  0  0  0  0  0  0  0  0  0
    0.6017   -2.7118   36.9318 N   0  0  0  0  0  0  0  0  0  0  0  0
    0.3970   -3.6966   36.5092 C   0  0  0  0  0  0  0  0  0  0  0  0
    0.4374   -3.4028   34.8076 O   0  0  0  0  0  0  0  0  0  0  0  0
    0.1101   -4.7394   36.5687 N   0  0  0  0  0  0  0  0  0  0  0  0
   -0.1534   -5.9447   35.7640 C   0  0  0  0  0  0  0  0  0  0  0  0
   -0.1133   -6.0971   34.3507 C   0  0  0  0  0  0  0  0  0  0  0  0
   -0.4581   -7.3228   33.9393 N   0  0  0  0  0  0  0  0  0  0  0  0
   -0.7698   -7.9665   35.0766 N   0  0  0  0  0  0  0  0  0  0  0  0
   -0.5257   -7.2182   36.1913 C   0  0  0  0  0  0  0  0  0  0  0  0
   -2.6075   -2.6841   32.0925 H   0  0  0  0  0  0  0  0  0  0  0  0
   -1.1284   -3.7471   31.7657 H   0  0  0  0  0  0  0  0  0  0  0  0
   -1.5569   -3.1939   33.3387 H   0  0  0  0  0  0  0  0  0  0  0  0
   -0.6349   -2.6037   30.2786 H   0  0  0  0  0  0  0  0  0  0  0  0
   -2.0899   -1.5215   30.6355 H   0  0  0  0  0  0  0  0  0  0  0  0
    1.0320    0.1112   31.4995 H   0  0  0  0  0  0  0  0  0  0  0  0
    1.8937    1.9829   30.1576 H   0  0  0  0  0  0  0  0  0  0  0  0
    1.0057    2.4167   27.8842 H   0  0  0  0  0  0  0  0  0  0  0  0
   -0.7322    0.9179   26.9295 H   0  0  0  0  0  0  0  0  0  0  0  0
   -1.5879   -0.9716   28.2347 H   0  0  0  0  0  0  0  0  0  0  0  0
    0.3034   -2.0041   34.0954 H   0  0  0  0  0  0  0  0  0  0  0  0
   -0.9756    1.1762   35.1879 H   0  0  0  0  0  0  0  0  0  0  0  0
   -0.7149    2.2896   37.2492 H   0  0  0  0  0  0  0  0  0  0  0  0
    1.2921    3.2728   38.5685 H   0  0  0  0  0  0  0  0  0  0  0  0
    4.0401    0.2543   38.4179 H   0  0  0  0  0  0  0  0  0  0  0  0
    0.6848   -2.0396   37.6904 H   0  0  0  0  0  0  0  0  0  0  0  0
   -0.1712   -5.5674   37.0519 H   0  0  0  0  0  0  0  0  0  0  0  0
    0.1478   -5.3610   33.6021 H   0  0  0  0  0  0  0  0  0  0  0  0
   -1.1115   -8.9299   35.0257 H   0  0  0  0  0  0  0  0  0  0  0  0
   -0.6693   -7.6453   37.1727 H   0  0  0  0  0  0  0  0  0  0  0  0
  1  2  1  0
  2  3  1  0
  3  4  1  0
  4  5  2  0
  5  6  1  0
  6  7  2  0
  7  8  1  0
  8  9  2  0
  2 10  1  0
 10 11  2  0
 10 12  1  0
 12 13  1  0
 13 14  2  0
 14 15  1  0
 15 16  2  0
 16 17  1  0
 17 18  1  0
 18 19  2  0
 19 20  1  0
 20 21  1  0
 21 22  2  0
 22 23  1  0
 23 24  1  0
 24 25  2  0
 24 26  1  0
 26 27  1  0
 27 28  1  0
 28 29  2  0
 29 30  1  0
 30 31  1  0
  9  4  1  0
 22 13  1  0
 31 27  2  0
 20 16  1  0
  1 32  1  0
  1 33  1  0
  1 34  1  0
  3 35  1  0
  3 36  1  0
  5 37  1  0
  6 38  1  0
  7 39  1  0
  8 40  1  0
  9 41  1  0
 12 42  1  0
 14 43  1  0
 15 44  1  0
 17 45  1  0
 19 46  1  0
 23 47  1  0
 26 48  1  0
 28 49  1  0
 30 50  1  0
 31 51  1  0
M  END
>  <Energy>  (843) 
453.83841381978226

>  <compound_id>  (843) 
3765

>  <target_id>  (843) 
1

>  <reference_id>  (843) 
25

>  <inspiration_ids>  (843) 
[130, 25]

>  <energy_score>  (843) 
374.49887633990664

>  <distance_score>  (843) 
3.8737668742386835

>  <path>  (843) 
/opt/xchem-fragalysis-2/maxwin/BulkDock/SCRATCH/505734/C3765-P25/C3765-P25.minimised.mol

>  <scratch_subdir>  (843) 
/opt/xchem-fragalysis-2/maxwin/BulkDock/SCRATCH/505734/C3765-P25

>  <fragmenstein_runtime>  (843) 
12.011916637420654

>  <fragmenstein_outcome>  (843) 
too moved

>  <fragmenstein_mode>  (843) 
expansion

>  <fragmenstein_error>  (843) 


$$$$
C2403-P130
     RDKit          3D

 49 52  0  0  0  0  0  0  0  0999 V2000
    4.9391    0.2388   27.8323 C   0  0  0  0  0  0  0  0  0  0  0  0
    3.7988    0.6222   28.7435 N   0  0  0  0  0  0  0  0  0  0  0  0
    4.2250    2.0028   28.3441 C   0  0  0  0  0  0  0  0  0  0  0  0
    3.1897    2.9548   28.9675 C   0  0  0  0  0  0  0  0  0  0  0  0
    2.8501    2.8632   30.3291 C   0  0  0  0  0  0  0  0  0  0  0  0
    1.9105    3.7297   30.8884 C   0  0  0  0  0  0  0  0  0  0  0  0
    1.3154    4.7103   30.0998 C   0  0  0  0  0  0  0  0  0  0  0  0
    1.6466    4.8148   28.7499 C   0  0  0  0  0  0  0  0  0  0  0  0
    2.5667    3.9343   28.1818 C   0  0  0  0  0  0  0  0  0  0  0  0
    2.6062   -0.1345   28.3975 C   0  0  0  0  0  0  0  0  0  0  0  0
    1.7366    0.1210   27.6532 O   0  0  0  0  0  0  0  0  0  0  0  0
    2.7639   -1.2580   29.3231 N   0  0  0  0  0  0  0  0  0  0  0  0
    1.9097   -2.2741   29.6501 C   0  0  0  0  0  0  0  0  0  0  0  0
    2.5624   -3.5727   29.8257 C   0  0  0  0  0  0  0  0  0  0  0  0
    1.9087   -4.6479   30.2954 C   0  0  0  0  0  0  0  0  0  0  0  0
    0.5610   -4.5158   30.6985 C   0  0  0  0  0  0  0  0  0  0  0  0
   -0.2665   -5.3532   31.2837 N   0  0  0  0  0  0  0  0  0  0  0  0
   -1.4067   -4.6553   31.5931 N   0  0  0  0  0  0  0  0  0  0  0  0
   -1.2680   -3.4316   31.1341 C   0  0  0  0  0  0  0  0  0  0  0  0
   -0.0437   -3.2747   30.5359 N   0  0  0  0  0  0  0  0  0  0  0  0
    0.5919   -2.1437   29.9745 C   0  0  0  0  0  0  0  0  0  0  0  0
   -0.2561   -0.6028   30.0455 S   0  0  0  0  0  0  0  0  0  0  0  0
   -0.9945   -0.4789   28.3719 C   0  0  0  0  0  0  0  0  0  0  0  0
   -1.3645    0.9137   27.9009 C   0  0  0  0  0  0  0  0  0  0  0  0
   -2.2060    1.0290   26.7899 C   0  0  0  0  0  0  0  0  0  0  0  0
   -2.5893    2.2813   26.3321 C   0  0  0  0  0  0  0  0  0  0  0  0
   -2.1651    3.4303   26.8799 N   0  0  0  0  0  0  0  0  0  0  0  0
   -1.3374    3.3127   27.9341 C   0  0  0  0  0  0  0  0  0  0  0  0
   -0.8970    2.1022   28.4565 C   0  0  0  0  0  0  0  0  0  0  0  0
    5.9335    0.5868   28.1500 H   0  0  0  0  0  0  0  0  0  0  0  0
    5.0209   -0.8559   27.9119 H   0  0  0  0  0  0  0  0  0  0  0  0
    4.7274    0.3891   26.7620 H   0  0  0  0  0  0  0  0  0  0  0  0
    4.1636    2.2011   27.2619 H   0  0  0  0  0  0  0  0  0  0  0  0
    5.1876    2.3069   28.7835 H   0  0  0  0  0  0  0  0  0  0  0  0
    3.3120    2.1059   30.9580 H   0  0  0  0  0  0  0  0  0  0  0  0
    1.6491    3.6456   31.9392 H   0  0  0  0  0  0  0  0  0  0  0  0
    0.5851    5.3917   30.5308 H   0  0  0  0  0  0  0  0  0  0  0  0
    1.1730    5.5763   28.1341 H   0  0  0  0  0  0  0  0  0  0  0  0
    2.7897    4.0247   27.1214 H   0  0  0  0  0  0  0  0  0  0  0  0
    3.6769   -1.2078   29.7526 H   0  0  0  0  0  0  0  0  0  0  0  0
    3.6035   -3.6662   29.5298 H   0  0  0  0  0  0  0  0  0  0  0  0
    2.3941   -5.6074   30.4081 H   0  0  0  0  0  0  0  0  0  0  0  0
   -1.9956   -2.6379   31.2183 H   0  0  0  0  0  0  0  0  0  0  0  0
   -1.9080   -1.0847   28.4076 H   0  0  0  0  0  0  0  0  0  0  0  0
   -0.3375   -0.9485   27.6394 H   0  0  0  0  0  0  0  0  0  0  0  0
   -2.5474    0.1368   26.2788 H   0  0  0  0  0  0  0  0  0  0  0  0
   -3.2633    2.3977   25.4900 H   0  0  0  0  0  0  0  0  0  0  0  0
   -1.0360    4.2555   28.3759 H   0  0  0  0  0  0  0  0  0  0  0  0
   -0.2001    2.1133   29.2855 H   0  0  0  0  0  0  0  0  0  0  0  0
  1  2  1  0
  2  3  1  0
  3  4  1  0
  4  5  2  0
  5  6  1  0
  6  7  2  0
  7  8  1  0
  8  9  2  0
  2 10  1  0
 10 11  2  0
 10 12  1  0
 12 13  1  0
 13 14  1  0
 14 15  2  0
 15 16  1  0
 16 17  2  0
 17 18  1  0
 18 19  2  0
 19 20  1  0
 20 21  1  0
 21 22  1  0
 22 23  1  0
 23 24  1  0
 24 25  2  0
 25 26  1  0
 26 27  2  0
 27 28  1  0
 28 29  2  0
  9  4  1  0
 21 13  2  0
 29 24  1  0
 20 16  1  0
  1 30  1  0
  1 31  1  0
  1 32  1  0
  3 33  1  0
  3 34  1  0
  5 35  1  0
  6 36  1  0
  7 37  1  0
  8 38  1  0
  9 39  1  0
 12 40  1  0
 14 41  1  0
 15 42  1  0
 19 43  1  0
 23 44  1  0
 23 45  1  0
 25 46  1  0
 26 47  1  0
 28 48  1  0
 29 49  1  0
M  END
>  <Energy>  (844) 
96.585906276380143

>  <compound_id>  (844) 
2403

>  <target_id>  (844) 
1

>  <reference_id>  (844) 
130

>  <inspiration_ids>  (844) 
[130, 44]

>  <energy_score>  (844) 
54.73572024684847

>  <distance_score>  (844) 
4.743519134215971

>  <path>  (844) 
/opt/xchem-fragalysis-2/maxwin/BulkDock/SCRATCH/505734/C2403-P130/C2403-P130.minimised.mol

>  <scratch_subdir>  (844) 
/opt/xchem-fragalysis-2/maxwin/BulkDock/SCRATCH/505734/C2403-P130

>  <fragmenstein_runtime>  (844) 
9.505481243133545

>  <fragmenstein_outcome>  (844) 
too moved

>  <fragmenstein_mode>  (844) 
expansion

>  <fragmenstein_error>  (844) 


$$$$
C2403-P44
     RDKit          3D

 49 52  0  0  0  0  0  0  0  0999 V2000
   -2.1814    0.0771   26.7916 C   0  0  0  0  0  0  0  0  0  0  0  0
   -1.2096    0.4442   27.8557 N   0  0  0  0  0  0  0  0  0  0  0  0
   -1.5110    1.8362   27.3505 C   0  0  0  0  0  0  0  0  0  0  0  0
   -0.3415    2.7254   27.7362 C   0  0  0  0  0  0  0  0  0  0  0  0
    0.9827    2.3292   27.4978 C   0  0  0  0  0  0  0  0  0  0  0  0
    2.0422    3.1729   27.8258 C   0  0  0  0  0  0  0  0  0  0  0  0
    1.7866    4.4244   28.3783 C   0  0  0  0  0  0  0  0  0  0  0  0
    0.4739    4.8405   28.5803 C   0  0  0  0  0  0  0  0  0  0  0  0
   -0.5846    4.0011   28.2445 C   0  0  0  0  0  0  0  0  0  0  0  0
   -1.5701   -0.2083   29.1075 C   0  0  0  0  0  0  0  0  0  0  0  0
   -2.2570    0.1621   29.9876 O   0  0  0  0  0  0  0  0  0  0  0  0
   -0.7459   -1.4176   28.9859 N   0  0  0  0  0  0  0  0  0  0  0  0
   -0.4674   -2.4174   29.8956 C   0  0  0  0  0  0  0  0  0  0  0  0
    0.2934   -3.5066   29.2570 C   0  0  0  0  0  0  0  0  0  0  0  0
    0.6420   -4.6374   29.8879 C   0  0  0  0  0  0  0  0  0  0  0  0
    0.2294   -4.8345   31.2165 C   0  0  0  0  0  0  0  0  0  0  0  0
    0.3297   -5.8686   32.0198 N   0  0  0  0  0  0  0  0  0  0  0  0
   -0.2151   -5.5085   33.2237 N   0  0  0  0  0  0  0  0  0  0  0  0
   -0.6269   -4.2635   33.1211 C   0  0  0  0  0  0  0  0  0  0  0  0
   -0.3973   -3.7739   31.8543 N   0  0  0  0  0  0  0  0  0  0  0  0
   -0.7107   -2.5296   31.2332 C   0  0  0  0  0  0  0  0  0  0  0  0
   -1.3551   -1.2995   32.2939 S   0  0  0  0  0  0  0  0  0  0  0  0
   -0.2399    0.1399   32.1184 C   0  0  0  0  0  0  0  0  0  0  0  0
    1.1606   -0.1304   31.6453 C   0  0  0  0  0  0  0  0  0  0  0  0
    1.6290    0.4392   30.4614 C   0  0  0  0  0  0  0  0  0  0  0  0
    2.9182    0.1509   30.0433 C   0  0  0  0  0  0  0  0  0  0  0  0
    3.7681   -0.6485   30.7214 N   0  0  0  0  0  0  0  0  0  0  0  0
    3.3096   -1.1650   31.8797 C   0  0  0  0  0  0  0  0  0  0  0  0
    2.0367   -0.9321   32.3781 C   0  0  0  0  0  0  0  0  0  0  0  0
   -2.4123   -0.9895   26.9156 H   0  0  0  0  0  0  0  0  0  0  0  0
   -3.1482    0.5876   26.8531 H   0  0  0  0  0  0  0  0  0  0  0  0
   -1.7485    0.1596   25.8014 H   0  0  0  0  0  0  0  0  0  0  0  0
   -1.5688    2.0155   26.2614 H   0  0  0  0  0  0  0  0  0  0  0  0
   -2.4058    2.2155   27.8670 H   0  0  0  0  0  0  0  0  0  0  0  0
    1.1917    1.3530   27.0675 H   0  0  0  0  0  0  0  0  0  0  0  0
    3.0669    2.8585   27.6485 H   0  0  0  0  0  0  0  0  0  0  0  0
    2.6095    5.0846   28.6387 H   0  0  0  0  0  0  0  0  0  0  0  0
    0.2666    5.8234   28.9971 H   0  0  0  0  0  0  0  0  0  0  0  0
   -1.6043    4.3545   28.3813 H   0  0  0  0  0  0  0  0  0  0  0  0
   -0.3495   -1.4574   28.0540 H   0  0  0  0  0  0  0  0  0  0  0  0
    0.6141   -3.3728   28.2286 H   0  0  0  0  0  0  0  0  0  0  0  0
    1.2300   -5.4068   29.4046 H   0  0  0  0  0  0  0  0  0  0  0  0
   -1.1104   -3.6972   33.9049 H   0  0  0  0  0  0  0  0  0  0  0  0
   -0.1681    0.5917   33.1158 H   0  0  0  0  0  0  0  0  0  0  0  0
   -0.7055    0.9141   31.5076 H   0  0  0  0  0  0  0  0  0  0  0  0
    0.9983    1.0950   29.8752 H   0  0  0  0  0  0  0  0  0  0  0  0
    3.3127    0.5707   29.1235 H   0  0  0  0  0  0  0  0  0  0  0  0
    4.0138   -1.7927   32.4181 H   0  0  0  0  0  0  0  0  0  0  0  0
    1.7388   -1.3814   33.3201 H   0  0  0  0  0  0  0  0  0  0  0  0
  1  2  1  0
  2  3  1  0
  3  4  1  0
  4  5  2  0
  5  6  1  0
  6  7  2  0
  7  8  1  0
  8  9  2  0
  2 10  1  0
 10 11  2  0
 10 12  1  0
 12 13  1  0
 13 14  1  0
 14 15  2  0
 15 16  1  0
 16 17  2  0
 17 18  1  0
 18 19  2  0
 19 20  1  0
 20 21  1  0
 21 22  1  0
 22 23  1  0
 23 24  1  0
 24 25  2  0
 25 26  1  0
 26 27  2  0
 27 28  1  0
 28 29  2  0
  9  4  1  0
 21 13  2  0
 29 24  1  0
 20 16  1  0
  1 30  1  0
  1 31  1  0
  1 32  1  0
  3 33  1  0
  3 34  1  0
  5 35  1  0
  6 36  1  0
  7 37  1  0
  8 38  1  0
  9 39  1  0
 12 40  1  0
 14 41  1  0
 15 42  1  0
 19 43  1  0
 23 44  1  0
 23 45  1  0
 25 46  1  0
 26 47  1  0
 28 48  1  0
 29 49  1  0
M  END
>  <Energy>  (845) 
93.657096727108623

>  <compound_id>  (845) 
2403

>  <target_id>  (845) 
1

>  <reference_id>  (845) 
44

>  <inspiration_ids>  (845) 
[130, 44]

>  <energy_score>  (845) 
51.80691069757489

>  <distance_score>  (845) 
4.471491334366483

>  <path>  (845) 
/opt/xchem-fragalysis-2/maxwin/BulkDock/SCRATCH/505734/C2403-P44/C2403-P44.minimised.mol

>  <scratch_subdir>  (845) 
/opt/xchem-fragalysis-2/maxwin/BulkDock/SCRATCH/505734/C2403-P44

>  <fragmenstein_runtime>  (845) 
8.63515305519104

>  <fragmenstein_outcome>  (845) 
too moved

>  <fragmenstein_mode>  (845) 
expansion

>  <fragmenstein_error>  (845) 


$$$$
C3767-P130
     RDKit          3D

 68 72  0  0  0  0  0  0  0  0999 V2000
   -0.3753   -3.6378   29.2847 C   0  0  0  0  0  0  0  0  0  0  0  0
    0.3396   -2.3306   29.1410 N   0  0  0  0  0  0  0  0  0  0  0  0
   -1.0940   -1.8458   29.0957 C   0  0  0  0  0  0  0  0  0  0  0  0
   -1.0647   -0.3545   28.7562 C   0  0  0  0  0  0  0  0  0  0  0  0
   -0.4527    0.5737   29.6074 C   0  0  0  0  0  0  0  0  0  0  0  0
   -0.3935    1.9189   29.2536 C   0  0  0  0  0  0  0  0  0  0  0  0
   -1.0241    2.3662   28.0954 C   0  0  0  0  0  0  0  0  0  0  0  0
   -1.6583    1.4627   27.2546 C   0  0  0  0  0  0  0  0  0  0  0  0
   -1.6529    0.1063   27.5701 C   0  0  0  0  0  0  0  0  0  0  0  0
    1.4032   -2.1671   30.2083 C   0  0  0  0  0  0  0  0  0  0  0  0
    1.3362   -1.6945   31.2819 O   0  0  0  0  0  0  0  0  0  0  0  0
    2.7186   -2.6715   29.5629 C   0  0  0  0  0  0  0  0  0  0  0  0
    3.3505   -3.8608   30.3076 C   0  0  0  0  0  0  0  0  0  0  0  0
    3.3065   -3.8276   31.8373 C   0  0  0  0  0  0  0  0  0  0  0  0
    3.7689   -2.5738   32.4215 N   0  0  0  0  0  0  0  0  0  0  0  0
    5.1209   -2.2964   32.0444 N   0  0  0  0  0  0  0  0  0  0  0  0
    5.1253   -1.0498   31.2617 C   0  0  0  0  0  0  0  0  0  0  0  0
    5.0570   -1.2960   29.7459 C   0  0  0  0  0  0  0  0  0  0  0  0
    5.5055   -0.0295   28.9798 C   0  0  0  0  0  0  0  0  0  0  0  0
    4.2454    0.8339   28.8402 C   0  0  0  0  0  0  0  0  0  0  0  0
    4.2450    1.7370   27.2490 S   0  0  0  0  0  0  0  0  0  0  0  0
    4.4312    3.4282   27.8337 C   0  0  0  0  0  0  0  0  0  0  0  0
    3.2097    3.9774   28.2981 N   0  0  0  0  0  0  0  0  0  0  0  0
    2.2067    4.4108   27.4798 C   0  0  0  0  0  0  0  0  0  0  0  0
    1.1044    4.6556   27.9571 O   0  0  0  0  0  0  0  0  0  0  0  0
    2.5603    4.5081   26.0131 C   0  0  0  0  0  0  0  0  0  0  0  0
    1.6660    5.8463   25.1612 S   0  0  0  0  0  0  0  0  0  0  0  0
    3.0744    6.9797   25.0781 C   0  0  0  0  0  0  0  0  0  0  0  0
    4.1229    6.3966   26.0086 C   0  0  0  0  0  0  0  0  0  0  0  0
    4.0405    4.8756   25.8695 C   0  0  0  0  0  0  0  0  0  0  0  0
    4.9926    4.2798   26.8126 N   0  0  0  0  0  0  0  0  0  0  0  0
    3.0647   -0.1392   28.9631 C   0  0  0  0  0  0  0  0  0  0  0  0
    3.6800   -1.5460   29.0941 C   0  0  0  0  0  0  0  0  0  0  0  0
   -0.8825   -3.9833   28.3772 H   0  0  0  0  0  0  0  0  0  0  0  0
   -0.9428   -3.7666   30.2202 H   0  0  0  0  0  0  0  0  0  0  0  0
    0.4259   -4.3828   29.4023 H   0  0  0  0  0  0  0  0  0  0  0  0
   -1.7262   -2.2853   28.3101 H   0  0  0  0  0  0  0  0  0  0  0  0
   -1.5811   -1.8825   30.0848 H   0  0  0  0  0  0  0  0  0  0  0  0
    0.0030    0.2553   30.5400 H   0  0  0  0  0  0  0  0  0  0  0  0
    0.1098    2.6379   29.8944 H   0  0  0  0  0  0  0  0  0  0  0  0
   -1.0316    3.4273   27.8550 H   0  0  0  0  0  0  0  0  0  0  0  0
   -2.1566    1.8163   26.3568 H   0  0  0  0  0  0  0  0  0  0  0  0
   -2.1217   -0.5930   26.8817 H   0  0  0  0  0  0  0  0  0  0  0  0
    2.4121   -3.1267   28.6060 H   0  0  0  0  0  0  0  0  0  0  0  0
    4.3797   -4.0130   29.9610 H   0  0  0  0  0  0  0  0  0  0  0  0
    2.8151   -4.7719   30.0051 H   0  0  0  0  0  0  0  0  0  0  0  0
    2.2766   -4.0044   32.1695 H   0  0  0  0  0  0  0  0  0  0  0  0
    3.8942   -4.6627   32.2373 H   0  0  0  0  0  0  0  0  0  0  0  0
    3.6177   -2.5892   33.4325 H   0  0  0  0  0  0  0  0  0  0  0  0
    5.7009   -2.1453   32.8752 H   0  0  0  0  0  0  0  0  0  0  0  0
    6.0857   -0.5641   31.4791 H   0  0  0  0  0  0  0  0  0  0  0  0
    4.3567   -0.3423   31.5990 H   0  0  0  0  0  0  0  0  0  0  0  0
    5.7486   -2.1102   29.4927 H   0  0  0  0  0  0  0  0  0  0  0  0
    5.8905   -0.3397   27.9988 H   0  0  0  0  0  0  0  0  0  0  0  0
    6.3147    0.5114   29.4823 H   0  0  0  0  0  0  0  0  0  0  0  0
    4.1938    1.5491   29.6688 H   0  0  0  0  0  0  0  0  0  0  0  0
    5.1302    3.4264   28.6758 H   0  0  0  0  0  0  0  0  0  0  0  0
    2.9211    3.8123   29.2511 H   0  0  0  0  0  0  0  0  0  0  0  0
    2.3305    3.5477   25.5405 H   0  0  0  0  0  0  0  0  0  0  0  0
    2.7843    7.9916   25.3737 H   0  0  0  0  0  0  0  0  0  0  0  0
    3.4401    7.0087   24.0469 H   0  0  0  0  0  0  0  0  0  0  0  0
    3.9236    6.7139   27.0413 H   0  0  0  0  0  0  0  0  0  0  0  0
    5.1178    6.7754   25.7463 H   0  0  0  0  0  0  0  0  0  0  0  0
    4.3677    4.6045   24.8553 H   0  0  0  0  0  0  0  0  0  0  0  0
    5.6800    3.7225   26.3083 H   0  0  0  0  0  0  0  0  0  0  0  0
    2.3595   -0.0921   28.1262 H   0  0  0  0  0  0  0  0  0  0  0  0
    2.5162    0.1309   29.8710 H   0  0  0  0  0  0  0  0  0  0  0  0
    3.9337   -1.8392   28.0598 H   0  0  0  0  0  0  0  0  0  0  0  0
  1  2  1  0
  2  3  1  0
  3  4  1  0
  4  5  2  0
  5  6  1  0
  6  7  2  0
  7  8  1  0
  8  9  2  0
  2 10  1  0
 10 11  2  0
 10 12  1  0
 12 13  1  0
 13 14  1  0
 14 15  1  0
 15 16  1  0
 16 17  1  0
 17 18  1  0
 18 19  1  0
 19 20  1  0
 20 21  1  0
 21 22  1  0
 22 23  1  0
 23 24  1  0
 24 25  2  0
 24 26  1  0
 26 27  1  0
 27 28  1  0
 28 29  1  0
 29 30  1  0
 30 31  1  0
 20 32  1  0
 32 33  1  0
  9  4  1  0
 33 12  1  0
 33 18  1  0
 31 22  1  0
 30 26  1  0
  1 34  1  0
  1 35  1  0
  1 36  1  0
  3 37  1  0
  3 38  1  0
  5 39  1  0
  6 40  1  0
  7 41  1  0
  8 42  1  0
  9 43  1  0
 12 44  1  0
 13 45  1  0
 13 46  1  0
 14 47  1  0
 14 48  1  0
 15 49  1  0
 16 50  1  0
 17 51  1  0
 17 52  1  0
 18 53  1  0
 19 54  1  0
 19 55  1  0
 20 56  1  0
 22 57  1  0
 23 58  1  0
 26 59  1  0
 28 60  1  0
 28 61  1  0
 29 62  1  0
 29 63  1  0
 30 64  1  0
 31 65  1  0
 32 66  1  0
 32 67  1  0
 33 68  1  0
M  END
>  <Energy>  (846) 
88.692950046167681

>  <compound_id>  (846) 
3767

>  <target_id>  (846) 
1

>  <reference_id>  (846) 
130

>  <inspiration_ids>  (846) 
[130, 53]

>  <energy_score>  (846) 
7.752524893413579

>  <distance_score>  (846) 
1.7054103614352667

>  <path>  (846) 
/opt/xchem-fragalysis-2/maxwin/BulkDock/SCRATCH/505734/C3767-P130/C3767-P130.minimised.mol

>  <scratch_subdir>  (846) 
/opt/xchem-fragalysis-2/maxwin/BulkDock/SCRATCH/505734/C3767-P130

>  <fragmenstein_runtime>  (846) 
5.315796136856079

>  <fragmenstein_outcome>  (846) 
too moved

>  <fragmenstein_mode>  (846) 
expansion

>  <fragmenstein_error>  (846) 


$$$$
C3767-P53
     RDKit          3D

 68 72  0  0  0  0  0  0  0  0999 V2000
   -0.2091   -3.6052   29.4491 C   0  0  0  0  0  0  0  0  0  0  0  0
    0.4961   -2.3268   29.1119 N   0  0  0  0  0  0  0  0  0  0  0  0
   -0.9357   -1.8325   29.1346 C   0  0  0  0  0  0  0  0  0  0  0  0
   -0.9534   -0.3657   28.7103 C   0  0  0  0  0  0  0  0  0  0  0  0
   -0.3539    0.6218   29.5045 C   0  0  0  0  0  0  0  0  0  0  0  0
   -0.3957    1.9579   29.1145 C   0  0  0  0  0  0  0  0  0  0  0  0
   -1.0836    2.3247   27.9600 C   0  0  0  0  0  0  0  0  0  0  0  0
   -1.6834    1.3561   27.1630 C   0  0  0  0  0  0  0  0  0  0  0  0
   -1.6053    0.0143   27.5269 C   0  0  0  0  0  0  0  0  0  0  0  0
    1.6455   -2.0661   30.0657 C   0  0  0  0  0  0  0  0  0  0  0  0
    1.6690   -1.4846   31.0860 O   0  0  0  0  0  0  0  0  0  0  0  0
    2.8821   -2.7367   29.4317 C   0  0  0  0  0  0  0  0  0  0  0  0
    3.4371   -3.9221   30.2507 C   0  0  0  0  0  0  0  0  0  0  0  0
    3.4400   -3.8570   31.7796 C   0  0  0  0  0  0  0  0  0  0  0  0
    4.1011   -2.7260   32.4215 N   0  0  0  0  0  0  0  0  0  0  0  0
    5.1722   -2.1770   31.6329 N   0  0  0  0  0  0  0  0  0  0  0  0
    4.7437   -0.8231   31.2433 C   0  0  0  0  0  0  0  0  0  0  0  0
    4.5840   -0.6482   29.7326 C   0  0  0  0  0  0  0  0  0  0  0  0
    3.7638    0.6046   29.3937 C   0  0  0  0  0  0  0  0  0  0  0  0
    3.3677    0.4616   27.9278 C   0  0  0  0  0  0  0  0  0  0  0  0
    4.4320    1.4206   26.7794 S   0  0  0  0  0  0  0  0  0  0  0  0
    3.9322    3.1350   27.0870 C   0  0  0  0  0  0  0  0  0  0  0  0
    2.5274    3.3075   26.9950 N   0  0  0  0  0  0  0  0  0  0  0  0
    1.9797    4.5595   27.0296 C   0  0  0  0  0  0  0  0  0  0  0  0
    0.9267    4.7249   27.6362 O   0  0  0  0  0  0  0  0  0  0  0  0
    2.6753    5.6165   26.1954 C   0  0  0  0  0  0  0  0  0  0  0  0
    2.5103    7.2881   26.9111 S   0  0  0  0  0  0  0  0  0  0  0  0
    4.2653    7.5003   27.2892 C   0  0  0  0  0  0  0  0  0  0  0  0
    4.8280    6.0910   27.3023 C   0  0  0  0  0  0  0  0  0  0  0  0
    4.1815    5.3601   26.1254 C   0  0  0  0  0  0  0  0  0  0  0  0
    4.5471    3.9460   26.0555 N   0  0  0  0  0  0  0  0  0  0  0  0
    3.4757   -1.0365   27.6091 C   0  0  0  0  0  0  0  0  0  0  0  0
    3.9622   -1.7687   28.8824 C   0  0  0  0  0  0  0  0  0  0  0  0
   -0.8077   -4.0252   28.6328 H   0  0  0  0  0  0  0  0  0  0  0  0
    0.5907   -4.3512   29.5562 H   0  0  0  0  0  0  0  0  0  0  0  0
   -0.6824   -3.6376   30.4436 H   0  0  0  0  0  0  0  0  0  0  0  0
   -1.3661   -1.8105   30.1507 H   0  0  0  0  0  0  0  0  0  0  0  0
   -1.6059   -2.3226   28.4162 H   0  0  0  0  0  0  0  0  0  0  0  0
    0.1449    0.3590   30.4331 H   0  0  0  0  0  0  0  0  0  0  0  0
    0.0637    2.7308   29.7261 H   0  0  0  0  0  0  0  0  0  0  0  0
   -1.1674    3.3757   27.6889 H   0  0  0  0  0  0  0  0  0  0  0  0
   -2.2229    1.6499   26.2664 H   0  0  0  0  0  0  0  0  0  0  0  0
   -2.0672   -0.7328   26.8826 H   0  0  0  0  0  0  0  0  0  0  0  0
    2.5259   -3.2443   28.5201 H   0  0  0  0  0  0  0  0  0  0  0  0
    2.8380   -4.8072   29.9925 H   0  0  0  0  0  0  0  0  0  0  0  0
    4.4472   -4.1699   29.8984 H   0  0  0  0  0  0  0  0  0  0  0  0
    2.4084   -3.9013   32.1477 H   0  0  0  0  0  0  0  0  0  0  0  0
    3.9208   -4.7742   32.1430 H   0  0  0  0  0  0  0  0  0  0  0  0
    4.3644   -2.9617   33.3798 H   0  0  0  0  0  0  0  0  0  0  0  0
    6.0300   -2.0903   32.1848 H   0  0  0  0  0  0  0  0  0  0  0  0
    5.5168   -0.1179   31.5793 H   0  0  0  0  0  0  0  0  0  0  0  0
    3.8421   -0.4965   31.7769 H   0  0  0  0  0  0  0  0  0  0  0  0
    5.5956   -0.4866   29.3280 H   0  0  0  0  0  0  0  0  0  0  0  0
    4.3164    1.5228   29.6179 H   0  0  0  0  0  0  0  0  0  0  0  0
    2.8525    0.6345   30.0018 H   0  0  0  0  0  0  0  0  0  0  0  0
    2.3294    0.7629   27.7751 H   0  0  0  0  0  0  0  0  0  0  0  0
    4.2683    3.4252   28.0870 H   0  0  0  0  0  0  0  0  0  0  0  0
    1.9636    2.6813   27.5508 H   0  0  0  0  0  0  0  0  0  0  0  0
    2.2264    5.5912   25.1963 H   0  0  0  0  0  0  0  0  0  0  0  0
    4.4040    8.0058   28.2487 H   0  0  0  0  0  0  0  0  0  0  0  0
    4.7296    8.1042   26.5034 H   0  0  0  0  0  0  0  0  0  0  0  0
    4.5946    5.6147   28.2625 H   0  0  0  0  0  0  0  0  0  0  0  0
    5.9200    6.1112   27.2121 H   0  0  0  0  0  0  0  0  0  0  0  0
    4.5600    5.8214   25.2022 H   0  0  0  0  0  0  0  0  0  0  0  0
    5.5538    3.8185   26.1339 H   0  0  0  0  0  0  0  0  0  0  0  0
    4.1715   -1.2455   26.7867 H   0  0  0  0  0  0  0  0  0  0  0  0
    2.5019   -1.4084   27.2742 H   0  0  0  0  0  0  0  0  0  0  0  0
    4.7934   -2.4139   28.5608 H   0  0  0  0  0  0  0  0  0  0  0  0
  1  2  1  0
  2  3  1  0
  3  4  1  0
  4  5  2  0
  5  6  1  0
  6  7  2  0
  7  8  1  0
  8  9  2  0
  2 10  1  0
 10 11  2  0
 10 12  1  0
 12 13  1  0
 13 14  1  0
 14 15  1  0
 15 16  1  0
 16 17  1  0
 17 18  1  0
 18 19  1  0
 19 20  1  0
 20 21  1  0
 21 22  1  0
 22 23  1  0
 23 24  1  0
 24 25  2  0
 24 26  1  0
 26 27  1  0
 27 28  1  0
 28 29  1  0
 29 30  1  0
 30 31  1  0
 20 32  1  0
 32 33  1  0
  9  4  1  0
 33 12  1  0
 33 18  1  0
 31 22  1  0
 30 26  1  0
  1 34  1  0
  1 35  1  0
  1 36  1  0
  3 37  1  0
  3 38  1  0
  5 39  1  0
  6 40  1  0
  7 41  1  0
  8 42  1  0
  9 43  1  0
 12 44  1  0
 13 45  1  0
 13 46  1  0
 14 47  1  0
 14 48  1  0
 15 49  1  0
 16 50  1  0
 17 51  1  0
 17 52  1  0
 18 53  1  0
 19 54  1  0
 19 55  1  0
 20 56  1  0
 22 57  1  0
 23 58  1  0
 26 59  1  0
 28 60  1  0
 28 61  1  0
 29 62  1  0
 29 63  1  0
 30 64  1  0
 31 65  1  0
 32 66  1  0
 32 67  1  0
 33 68  1  0
M  END
>  <Energy>  (847) 
89.132947603775861

>  <compound_id>  (847) 
3767

>  <target_id>  (847) 
1

>  <reference_id>  (847) 
53

>  <inspiration_ids>  (847) 
[130, 53]

>  <energy_score>  (847) 
8.192522451021688

>  <distance_score>  (847) 
1.7907076188905067

>  <path>  (847) 
/opt/xchem-fragalysis-2/maxwin/BulkDock/SCRATCH/505734/C3767-P53/C3767-P53.minimised.mol

>  <scratch_subdir>  (847) 
/opt/xchem-fragalysis-2/maxwin/BulkDock/SCRATCH/505734/C3767-P53

>  <fragmenstein_runtime>  (847) 
5.04813027381897

>  <fragmenstein_outcome>  (847) 
too moved

>  <fragmenstein_mode>  (847) 
expansion

>  <fragmenstein_error>  (847) 


$$$$
C3768-P130
     RDKit          3D

 72 76  0  0  0  0  0  0  0  0999 V2000
    1.3909   -0.7143   32.2139 O   0  0  0  0  0  0  0  0  0  0  0  0
    0.9306   -1.5354   31.5133 C   0  0  0  0  0  0  0  0  0  0  0  0
    1.3758   -2.8811   31.2259 N   0  0  0  0  0  0  0  0  0  0  0  0
    2.4518   -3.6495   31.7776 C   0  0  0  0  0  0  0  0  0  0  0  0
    2.3059   -5.1559   31.6104 C   0  0  0  0  0  0  0  0  0  0  0  0
    0.9993   -5.7250   31.8291 N   0  0  0  0  0  0  0  0  0  0  0  0
    0.4938   -6.2254   32.9875 C   0  0  0  0  0  0  0  0  0  0  0  0
   -0.6692   -6.7878   32.7463 N   0  0  0  0  0  0  0  0  0  0  0  0
   -0.9250   -6.6653   31.4007 N   0  0  0  0  0  0  0  0  0  0  0  0
    0.0878   -6.0280   30.8639 C   0  0  0  0  0  0  0  0  0  0  0  0
   -0.3096   -1.5339   30.7522 N   0  0  0  0  0  0  0  0  0  0  0  0
   -1.4375   -2.1236   31.5910 C   0  0  0  0  0  0  0  0  0  0  0  0
   -1.3594   -1.7893   33.0256 N   0  0  0  0  0  0  0  0  0  0  0  0
   -0.9666   -2.9866   33.8268 C   0  0  0  0  0  0  0  0  0  0  0  0
   -0.9228   -2.8429   35.3734 C   0  0  0  0  0  0  0  0  0  0  0  0
   -0.9363   -4.5254   36.1871 S   0  0  0  0  0  0  0  0  0  0  0  0
   -2.3423   -1.9217   35.9967 Cl  0  0  0  0  0  0  0  0  0  0  0  0
    0.4267   -2.2157   35.8652 C   0  0  0  0  0  0  0  0  0  0  0  0
    1.4198   -2.3793   35.2108 O   0  0  0  0  0  0  0  0  0  0  0  0
    0.2394   -1.5853   37.1509 N   0  0  0  0  0  0  0  0  0  0  0  0
    1.1721   -0.8705   38.0070 C   0  0  0  0  0  0  0  0  0  0  0  0
    1.1564    0.6521   37.6447 C   0  0  0  0  0  0  0  0  0  0  0  0
    0.9121    1.1200   36.4392 N   0  0  0  0  0  0  0  0  0  0  0  0
    0.9891    2.4824   36.5962 C   0  0  0  0  0  0  0  0  0  0  0  0
    0.7906    3.4674   35.3939 C   0  0  0  0  0  0  0  0  0  0  0  0
    0.5958    3.0481   34.0942 C   0  0  0  0  0  0  0  0  0  0  0  0
    0.4508    4.1463   33.1955 C   0  0  0  0  0  0  0  0  0  0  0  0
    0.5275    5.3583   33.8464 C   0  0  0  0  0  0  0  0  0  0  0  0
    0.7965    5.1675   35.5264 S   0  0  0  0  0  0  0  0  0  0  0  0
    1.2361    2.8741   37.8542 N   0  0  0  0  0  0  0  0  0  0  0  0
    1.3668    1.7006   38.4890 N   0  0  0  0  0  0  0  0  0  0  0  0
    0.9846   -1.2299   39.5034 C   0  0  0  0  0  0  0  0  0  0  0  0
    2.5147   -1.3291   39.6293 C   0  0  0  0  0  0  0  0  0  0  0  0
    2.5821   -1.5073   38.1025 C   0  0  0  0  0  0  0  0  0  0  0  0
   -1.3233   -0.4452   30.5385 C   0  0  0  0  0  0  0  0  0  0  0  0
   -0.7284    0.6099   29.6043 C   0  0  0  0  0  0  0  0  0  0  0  0
    0.2586    1.4947   30.0615 C   0  0  0  0  0  0  0  0  0  0  0  0
    0.7229    2.5240   29.2427 C   0  0  0  0  0  0  0  0  0  0  0  0
    0.2011    2.6860   27.9621 C   0  0  0  0  0  0  0  0  0  0  0  0
   -0.7636    1.8013   27.4884 C   0  0  0  0  0  0  0  0  0  0  0  0
   -1.2100    0.7542   28.2940 C   0  0  0  0  0  0  0  0  0  0  0  0
    0.7828   -3.2792   30.5095 H   0  0  0  0  0  0  0  0  0  0  0  0
    3.3838   -3.3021   31.3195 H   0  0  0  0  0  0  0  0  0  0  0  0
    2.5107   -3.3952   32.8415 H   0  0  0  0  0  0  0  0  0  0  0  0
    2.6046   -5.4351   30.5928 H   0  0  0  0  0  0  0  0  0  0  0  0
    2.9884   -5.6474   32.3092 H   0  0  0  0  0  0  0  0  0  0  0  0
    0.9853   -6.1625   33.9486 H   0  0  0  0  0  0  0  0  0  0  0  0
    0.2017   -5.7743   29.8203 H   0  0  0  0  0  0  0  0  0  0  0  0
   -2.4813   -2.1039   31.2347 H   0  0  0  0  0  0  0  0  0  0  0  0
   -1.2417   -3.2017   31.4817 H   0  0  0  0  0  0  0  0  0  0  0  0
   -0.6484   -1.0648   33.1717 H   0  0  0  0  0  0  0  0  0  0  0  0
    0.0129   -3.3287   33.4828 H   0  0  0  0  0  0  0  0  0  0  0  0
   -1.6598   -3.7824   33.5568 H   0  0  0  0  0  0  0  0  0  0  0  0
   -0.9991   -4.0716   37.4461 H   0  0  0  0  0  0  0  0  0  0  0  0
   -0.7554   -1.5536   37.3624 H   0  0  0  0  0  0  0  0  0  0  0  0
    0.5796    2.0037   33.8023 H   0  0  0  0  0  0  0  0  0  0  0  0
    0.2994    4.0592   32.1260 H   0  0  0  0  0  0  0  0  0  0  0  0
    0.4475    6.3464   33.4133 H   0  0  0  0  0  0  0  0  0  0  0  0
    1.5841    1.6962   39.4789 H   0  0  0  0  0  0  0  0  0  0  0  0
    0.5109   -0.4777   40.1410 H   0  0  0  0  0  0  0  0  0  0  0  0
    0.4776   -2.1875   39.6789 H   0  0  0  0  0  0  0  0  0  0  0  0
    2.9904   -0.4092   39.9874 H   0  0  0  0  0  0  0  0  0  0  0  0
    2.8864   -2.1703   40.2202 H   0  0  0  0  0  0  0  0  0  0  0  0
    2.6334   -2.5603   37.7996 H   0  0  0  0  0  0  0  0  0  0  0  0
    3.3968   -0.9688   37.6088 H   0  0  0  0  0  0  0  0  0  0  0  0
   -1.5877    0.1167   31.4483 H   0  0  0  0  0  0  0  0  0  0  0  0
   -2.2118   -0.7888   29.9885 H   0  0  0  0  0  0  0  0  0  0  0  0
    0.6596    1.4037   31.0680 H   0  0  0  0  0  0  0  0  0  0  0  0
    1.4778    3.2131   29.6122 H   0  0  0  0  0  0  0  0  0  0  0  0
    0.5409    3.5068   27.3363 H   0  0  0  0  0  0  0  0  0  0  0  0
   -1.1835    1.9353   26.4961 H   0  0  0  0  0  0  0  0  0  0  0  0
   -1.9553    0.0707   27.8924 H   0  0  0  0  0  0  0  0  0  0  0  0
  1  2  2  0
  2  3  1  0
  3  4  1  0
  4  5  1  0
  5  6  1  0
  6  7  1  0
  7  8  2  0
  8  9  1  0
  9 10  2  0
  2 11  1  0
 11 12  1  0
 12 13  1  0
 13 14  1  0
 14 15  1  0
 15 16  1  0
 15 17  1  0
 15 18  1  0
 18 19  2  0
 18 20  1  0
 20 21  1  0
 21 22  1  0
 22 23  2  0
 23 24  1  0
 24 25  1  0
 25 26  2  0
 26 27  1  0
 27 28  2  0
 28 29  1  0
 24 30  2  0
 30 31  1  0
 21 32  1  0
 32 33  1  0
 33 34  1  0
 11 35  1  0
 35 36  1  0
 36 37  2  0
 37 38  1  0
 38 39  2  0
 39 40  1  0
 40 41  2  0
 10  6  1  0
 34 21  1  0
 41 36  1  0
 31 22  1  0
 29 25  1  0
  3 42  1  0
  4 43  1  0
  4 44  1  0
  5 45  1  0
  5 46  1  0
  7 47  1  0
 10 48  1  0
 12 49  1  0
 12 50  1  0
 13 51  1  0
 14 52  1  0
 14 53  1  0
 16 54  1  0
 20 55  1  0
 26 56  1  0
 27 57  1  0
 28 58  1  0
 31 59  1  0
 32 60  1  0
 32 61  1  0
 33 62  1  0
 33 63  1  0
 34 64  1  0
 34 65  1  0
 35 66  1  0
 35 67  1  0
 37 68  1  0
 38 69  1  0
 39 70  1  0
 40 71  1  0
 41 72  1  0
M  END
>  <Energy>  (848) 
94.495849089986308

>  <compound_id>  (848) 
3768

>  <target_id>  (848) 
1

>  <reference_id>  (848) 
130

>  <inspiration_ids>  (848) 
[130, 56]

>  <energy_score>  (848) 
15.612010369012665

>  <distance_score>  (848) 
2.780189320444163

>  <path>  (848) 
/opt/xchem-fragalysis-2/maxwin/BulkDock/SCRATCH/505734/C3768-P130/C3768-P130.minimised.mol

>  <scratch_subdir>  (848) 
/opt/xchem-fragalysis-2/maxwin/BulkDock/SCRATCH/505734/C3768-P130

>  <fragmenstein_runtime>  (848) 
27.76920509338379

>  <fragmenstein_outcome>  (848) 
too moved

>  <fragmenstein_mode>  (848) 
expansion

>  <fragmenstein_error>  (848) 


$$$$
C3768-P56
     RDKit          3D

 72 76  0  0  0  0  0  0  0  0999 V2000
    1.5447   -1.6619   31.4094 O   0  0  0  0  0  0  0  0  0  0  0  0
    0.5432   -2.1544   31.0460 C   0  0  0  0  0  0  0  0  0  0  0  0
    0.2857   -3.4777   30.5082 N   0  0  0  0  0  0  0  0  0  0  0  0
    1.1538   -4.6115   30.3463 C   0  0  0  0  0  0  0  0  0  0  0  0
    1.1722   -5.5500   31.5532 C   0  0  0  0  0  0  0  0  0  0  0  0
    0.0035   -6.3916   31.6764 N   0  0  0  0  0  0  0  0  0  0  0  0
   -0.6774   -6.6717   32.8201 C   0  0  0  0  0  0  0  0  0  0  0  0
   -1.6803   -7.4757   32.5489 N   0  0  0  0  0  0  0  0  0  0  0  0
   -1.6332   -7.7600   31.2043 N   0  0  0  0  0  0  0  0  0  0  0  0
   -0.5931   -7.1328   30.7046 C   0  0  0  0  0  0  0  0  0  0  0  0
   -0.8018   -1.6005   30.9619 N   0  0  0  0  0  0  0  0  0  0  0  0
   -1.5516   -1.8633   32.2492 C   0  0  0  0  0  0  0  0  0  0  0  0
   -0.7982   -1.6000   33.4803 N   0  0  0  0  0  0  0  0  0  0  0  0
   -0.4284   -2.8334   34.2158 C   0  0  0  0  0  0  0  0  0  0  0  0
   -0.5416   -2.7811   35.7630 C   0  0  0  0  0  0  0  0  0  0  0  0
   -0.6859   -4.5263   36.4037 S   0  0  0  0  0  0  0  0  0  0  0  0
   -2.0176   -1.8913   36.3020 Cl  0  0  0  0  0  0  0  0  0  0  0  0
    0.6946   -2.1187   36.4477 C   0  0  0  0  0  0  0  0  0  0  0  0
    1.5768   -1.6577   35.7789 O   0  0  0  0  0  0  0  0  0  0  0  0
    0.5652   -2.2428   37.8857 N   0  0  0  0  0  0  0  0  0  0  0  0
    1.4136   -1.7653   38.9620 C   0  0  0  0  0  0  0  0  0  0  0  0
    0.9286   -0.3593   39.4512 C   0  0  0  0  0  0  0  0  0  0  0  0
    0.7115    0.6691   38.6601 N   0  0  0  0  0  0  0  0  0  0  0  0
    0.3027    1.6594   39.5199 C   0  0  0  0  0  0  0  0  0  0  0  0
   -0.0569    3.0978   39.0162 C   0  0  0  0  0  0  0  0  0  0  0  0
    0.0235    3.4768   37.6927 C   0  0  0  0  0  0  0  0  0  0  0  0
   -0.3472    4.8408   37.5032 C   0  0  0  0  0  0  0  0  0  0  0  0
   -0.7001    5.4464   38.6897 C   0  0  0  0  0  0  0  0  0  0  0  0
   -0.5821    4.3723   40.0193 S   0  0  0  0  0  0  0  0  0  0  0  0
    0.2449    1.2817   40.8048 N   0  0  0  0  0  0  0  0  0  0  0  0
    0.6512    0.0067   40.7339 N   0  0  0  0  0  0  0  0  0  0  0  0
    1.6275   -2.8462   40.0590 C   0  0  0  0  0  0  0  0  0  0  0  0
    3.1033   -2.4144   40.1202 C   0  0  0  0  0  0  0  0  0  0  0  0
    2.9386   -1.8587   38.6929 C   0  0  0  0  0  0  0  0  0  0  0  0
   -1.3004   -0.2014   31.2050 C   0  0  0  0  0  0  0  0  0  0  0  0
   -0.9017    0.6300   29.9825 C   0  0  0  0  0  0  0  0  0  0  0  0
    0.0762    1.6276   30.0845 C   0  0  0  0  0  0  0  0  0  0  0  0
    0.3805    2.4291   28.9838 C   0  0  0  0  0  0  0  0  0  0  0  0
   -0.2806    2.2362   27.7719 C   0  0  0  0  0  0  0  0  0  0  0  0
   -1.2306    1.2254   27.6505 C   0  0  0  0  0  0  0  0  0  0  0  0
   -1.5303    0.4170   28.7458 C   0  0  0  0  0  0  0  0  0  0  0  0
   -0.6823   -3.5355   30.2207 H   0  0  0  0  0  0  0  0  0  0  0  0
    2.1647   -4.2185   30.1929 H   0  0  0  0  0  0  0  0  0  0  0  0
    0.8393   -5.1165   29.4320 H   0  0  0  0  0  0  0  0  0  0  0  0
    2.0283   -6.2207   31.4669 H   0  0  0  0  0  0  0  0  0  0  0  0
    1.2830   -4.9828   32.4837 H   0  0  0  0  0  0  0  0  0  0  0  0
   -0.4113   -6.2856   33.7922 H   0  0  0  0  0  0  0  0  0  0  0  0
   -0.2507   -7.1923   29.6809 H   0  0  0  0  0  0  0  0  0  0  0  0
   -1.7239   -2.9463   32.1686 H   0  0  0  0  0  0  0  0  0  0  0  0
   -2.6020   -1.5333   32.3267 H   0  0  0  0  0  0  0  0  0  0  0  0
    0.0803   -1.1120   33.2683 H   0  0  0  0  0  0  0  0  0  0  0  0
    0.5951   -3.1053   33.9268 H   0  0  0  0  0  0  0  0  0  0  0  0
   -1.0429   -3.6625   33.8595 H   0  0  0  0  0  0  0  0  0  0  0  0
   -1.8041   -4.8052   35.7106 H   0  0  0  0  0  0  0  0  0  0  0  0
   -0.2826   -2.7617   38.0984 H   0  0  0  0  0  0  0  0  0  0  0  0
    0.3429    2.8066   36.9026 H   0  0  0  0  0  0  0  0  0  0  0  0
   -0.3491    5.3508   36.5475 H   0  0  0  0  0  0  0  0  0  0  0  0
   -1.0183    6.4681   38.8446 H   0  0  0  0  0  0  0  0  0  0  0  0
    0.7116   -0.5388   41.5855 H   0  0  0  0  0  0  0  0  0  0  0  0
    1.0674   -2.7399   40.9918 H   0  0  0  0  0  0  0  0  0  0  0  0
    1.4959   -3.8776   39.7075 H   0  0  0  0  0  0  0  0  0  0  0  0
    3.3083   -1.6450   40.8733 H   0  0  0  0  0  0  0  0  0  0  0  0
    3.8325   -3.2195   40.2353 H   0  0  0  0  0  0  0  0  0  0  0  0
    3.2259   -2.5795   37.9178 H   0  0  0  0  0  0  0  0  0  0  0  0
    3.4626   -0.9183   38.4977 H   0  0  0  0  0  0  0  0  0  0  0  0
   -0.8330    0.3065   32.0600 H   0  0  0  0  0  0  0  0  0  0  0  0
   -2.3971   -0.0854   31.2079 H   0  0  0  0  0  0  0  0  0  0  0  0
    0.6062    1.7923   31.0199 H   0  0  0  0  0  0  0  0  0  0  0  0
    1.1300    3.2115   29.0728 H   0  0  0  0  0  0  0  0  0  0  0  0
   -0.0514    2.8747   26.9230 H   0  0  0  0  0  0  0  0  0  0  0  0
   -1.7445    1.0686   26.7071 H   0  0  0  0  0  0  0  0  0  0  0  0
   -2.2618   -0.3781   28.6310 H   0  0  0  0  0  0  0  0  0  0  0  0
  1  2  2  0
  2  3  1  0
  3  4  1  0
  4  5  1  0
  5  6  1  0
  6  7  1  0
  7  8  2  0
  8  9  1  0
  9 10  2  0
  2 11  1  0
 11 12  1  0
 12 13  1  0
 13 14  1  0
 14 15  1  0
 15 16  1  0
 15 17  1  0
 15 18  1  0
 18 19  2  0
 18 20  1  0
 20 21  1  0
 21 22  1  0
 22 23  2  0
 23 24  1  0
 24 25  1  0
 25 26  2  0
 26 27  1  0
 27 28  2  0
 28 29  1  0
 24 30  2  0
 30 31  1  0
 21 32  1  0
 32 33  1  0
 33 34  1  0
 11 35  1  0
 35 36  1  0
 36 37  2  0
 37 38  1  0
 38 39  2  0
 39 40  1  0
 40 41  2  0
 10  6  1  0
 34 21  1  0
 41 36  1  0
 31 22  1  0
 29 25  1  0
  3 42  1  0
  4 43  1  0
  4 44  1  0
  5 45  1  0
  5 46  1  0
  7 47  1  0
 10 48  1  0
 12 49  1  0
 12 50  1  0
 13 51  1  0
 14 52  1  0
 14 53  1  0
 16 54  1  0
 20 55  1  0
 26 56  1  0
 27 57  1  0
 28 58  1  0
 31 59  1  0
 32 60  1  0
 32 61  1  0
 33 62  1  0
 33 63  1  0
 34 64  1  0
 34 65  1  0
 35 66  1  0
 35 67  1  0
 37 68  1  0
 38 69  1  0
 39 70  1  0
 40 71  1  0
 41 72  1  0
M  END
>  <Energy>  (849) 
95.25626524863813

>  <compound_id>  (849) 
3768

>  <target_id>  (849) 
1

>  <reference_id>  (849) 
56

>  <inspiration_ids>  (849) 
[130, 56]

>  <energy_score>  (849) 
16.372426527661162

>  <distance_score>  (849) 
2.707276183577973

>  <path>  (849) 
/opt/xchem-fragalysis-2/maxwin/BulkDock/SCRATCH/505734/C3768-P56/C3768-P56.minimised.mol

>  <scratch_subdir>  (849) 
/opt/xchem-fragalysis-2/maxwin/BulkDock/SCRATCH/505734/C3768-P56

>  <fragmenstein_runtime>  (849) 
21.93982768058777

>  <fragmenstein_outcome>  (849) 
too moved

>  <fragmenstein_mode>  (849) 
expansion

>  <fragmenstein_error>  (849) 


$$$$
C2633-P130
     RDKit          3D

 60 63  0  0  0  0  0  0  0  0999 V2000
   -0.4465   -3.4054   30.6085 O   0  0  0  0  0  0  0  0  0  0  0  0
    0.5368   -2.9587   31.0654 C   0  0  0  0  0  0  0  0  0  0  0  0
    1.6355   -3.6122   31.7578 N   0  0  0  0  0  0  0  0  0  0  0  0
    1.8063   -4.9868   32.1763 C   0  0  0  0  0  0  0  0  0  0  0  0
    0.5413   -5.6135   32.7951 C   0  0  0  0  0  0  0  0  0  0  0  0
   -0.1705   -6.5589   31.9609 N   0  0  0  0  0  0  0  0  0  0  0  0
   -0.9153   -7.6135   32.4003 C   0  0  0  0  0  0  0  0  0  0  0  0
   -1.3660   -8.2916   31.3685 N   0  0  0  0  0  0  0  0  0  0  0  0
   -0.9359   -7.6555   30.2323 N   0  0  0  0  0  0  0  0  0  0  0  0
   -0.2481   -6.6001   30.6055 C   0  0  0  0  0  0  0  0  0  0  0  0
    0.9735   -1.5666   31.1933 N   0  0  0  0  0  0  0  0  0  0  0  0
    1.7847   -1.1560   29.9617 C   0  0  0  0  0  0  0  0  0  0  0  0
    2.9540   -0.3203   30.3103 N   0  0  0  0  0  0  0  0  0  0  0  0
    3.0912    1.1316   29.4314 C   0  0  0  0  0  0  0  0  0  0  0  0
    2.3700    1.0830   27.6931 C   0  0  0  0  0  0  0  0  0  0  0  0
    3.1501    2.1689   27.1088 C   0  0  0  0  0  0  0  0  0  0  0  0
    3.0357    3.1708   25.7940 S   0  0  0  0  0  0  0  0  0  0  0  0
    4.4173    4.0621   26.3670 C   0  0  0  0  0  0  0  0  0  0  0  0
    4.8957    3.5835   27.5814 C   0  0  0  0  0  0  0  0  0  0  0  0
    4.1348    2.4737   27.9778 C   0  0  0  0  0  0  0  0  0  0  0  0
    3.9447    1.4481   29.3079 C   0  0  0  0  0  0  0  0  0  0  0  0
    2.7388    2.1739   30.4545 N   0  0  0  0  0  0  0  0  0  0  0  0
    3.3496    3.2727   31.0294 C   0  0  0  0  0  0  0  0  0  0  0  0
    3.2734    4.4086   30.5682 O   0  0  0  0  0  0  0  0  0  0  0  0
    4.0621    3.0431   32.3757 C   0  0  0  0  0  0  0  0  0  0  0  0
    3.6544    1.4849   33.2169 S   0  0  0  0  0  0  0  0  0  0  0  0
    5.8242    3.1390   32.1275 Cl  0  0  0  0  0  0  0  0  0  0  0  0
    0.2449   -0.2763   30.8828 C   0  0  0  0  0  0  0  0  0  0  0  0
   -0.5592    0.1010   29.6470 C   0  0  0  0  0  0  0  0  0  0  0  0
   -0.6647    1.4713   29.3384 C   0  0  0  0  0  0  0  0  0  0  0  0
   -1.3380    1.9184   28.2026 C   0  0  0  0  0  0  0  0  0  0  0  0
   -1.9007    0.9932   27.3406 C   0  0  0  0  0  0  0  0  0  0  0  0
   -1.8185   -0.3647   27.6419 C   0  0  0  0  0  0  0  0  0  0  0  0
   -1.1901   -0.8109   28.8032 C   0  0  0  0  0  0  0  0  0  0  0  0
    2.3628   -2.9303   31.9442 H   0  0  0  0  0  0  0  0  0  0  0  0
    2.5980   -4.9632   32.9334 H   0  0  0  0  0  0  0  0  0  0  0  0
    2.1863   -5.5519   31.3206 H   0  0  0  0  0  0  0  0  0  0  0  0
   -0.1837   -4.8571   33.1157 H   0  0  0  0  0  0  0  0  0  0  0  0
    0.8464   -6.1796   33.6845 H   0  0  0  0  0  0  0  0  0  0  0  0
   -1.0937   -7.8500   33.4413 H   0  0  0  0  0  0  0  0  0  0  0  0
    0.1862   -5.8631   29.9450 H   0  0  0  0  0  0  0  0  0  0  0  0
    2.3000   -2.0955   29.7031 H   0  0  0  0  0  0  0  0  0  0  0  0
    1.3106   -1.0055   28.9868 H   0  0  0  0  0  0  0  0  0  0  0  0
    2.8508   -0.0108   31.2825 H   0  0  0  0  0  0  0  0  0  0  0  0
    1.9663    1.0513   29.5260 H   0  0  0  0  0  0  0  0  0  0  0  0
    1.3034    1.2855   27.6916 H   0  0  0  0  0  0  0  0  0  0  0  0
    2.6147    0.1015   27.2743 H   0  0  0  0  0  0  0  0  0  0  0  0
    4.7726    4.9122   25.8010 H   0  0  0  0  0  0  0  0  0  0  0  0
    5.7059    4.0436   28.1334 H   0  0  0  0  0  0  0  0  0  0  0  0
    4.8107    0.6020   29.4463 H   0  0  0  0  0  0  0  0  0  0  0  0
    4.8058    2.0678   29.7946 H   0  0  0  0  0  0  0  0  0  0  0  0
    3.7778    3.8608   33.0451 H   0  0  0  0  0  0  0  0  0  0  0  0
    4.4948    1.6728   34.2443 H   0  0  0  0  0  0  0  0  0  0  0  0
    0.8032    0.5729   31.3000 H   0  0  0  0  0  0  0  0  0  0  0  0
   -0.5688   -0.3552   31.6248 H   0  0  0  0  0  0  0  0  0  0  0  0
   -0.1862    2.2179   29.9721 H   0  0  0  0  0  0  0  0  0  0  0  0
   -1.4167    2.9830   27.9925 H   0  0  0  0  0  0  0  0  0  0  0  0
   -2.4327    1.3233   26.4529 H   0  0  0  0  0  0  0  0  0  0  0  0
   -2.2705   -1.0968   26.9765 H   0  0  0  0  0  0  0  0  0  0  0  0
   -1.1822   -1.8790   28.9945 H   0  0  0  0  0  0  0  0  0  0  0  0
  1  2  2  0
  2  3  1  0
  3  4  1  0
  4  5  1  0
  5  6  1  0
  6  7  1  0
  7  8  2  0
  8  9  1  0
  9 10  2  0
  2 11  1  0
 11 12  1  0
 12 13  1  0
 13 14  1  0
 14 15  1  0
 15 16  1  0
 16 17  1  0
 17 18  1  0
 18 19  2  0
 19 20  1  0
 20 21  1  0
 21 22  1  0
 22 23  1  0
 23 24  2  0
 23 25  1  0
 25 26  1  0
 25 27  1  0
 11 28  1  0
 28 29  1  0
 29 30  2  0
 30 31  1  0
 31 32  2  0
 32 33  1  0
 33 34  2  0
 10  6  1  0
 22 14  1  0
 34 29  1  0
 20 16  2  0
  3 35  1  0
  4 36  1  0
  4 37  1  0
  5 38  1  0
  5 39  1  0
  7 40  1  0
 10 41  1  0
 12 42  1  0
 12 43  1  0
 13 44  1  0
 14 45  1  0
 15 46  1  0
 15 47  1  0
 18 48  1  0
 19 49  1  0
 21 50  1  0
 21 51  1  0
 25 52  1  0
 26 53  1  0
 28 54  1  0
 28 55  1  0
 30 56  1  0
 31 57  1  0
 32 58  1  0
 33 59  1  0
 34 60  1  0
M  END
>  <Energy>  (850) 
607.00299517546011

>  <compound_id>  (850) 
2633

>  <target_id>  (850) 
1

>  <reference_id>  (850) 
130

>  <inspiration_ids>  (850) 
[130, 57]

>  <energy_score>  (850) 
627.5842414697698

>  <distance_score>  (850) 
2.7799949379387163

>  <path>  (850) 
/opt/xchem-fragalysis-2/maxwin/BulkDock/SCRATCH/505734/C2633-P130/C2633-P130.minimised.mol

>  <scratch_subdir>  (850) 
/opt/xchem-fragalysis-2/maxwin/BulkDock/SCRATCH/505734/C2633-P130

>  <fragmenstein_runtime>  (850) 
15.396595478057861

>  <fragmenstein_outcome>  (850) 
too moved

>  <fragmenstein_mode>  (850) 
expansion

>  <fragmenstein_error>  (850) 


$$$$
C2633-P57
     RDKit          3D

 60 63  0  0  0  0  0  0  0  0999 V2000
   -1.7140   -3.1566   30.3143 O   0  0  0  0  0  0  0  0  0  0  0  0
   -0.8374   -2.4087   30.5171 C   0  0  0  0  0  0  0  0  0  0  0  0
   -0.0421   -2.1973   31.7108 N   0  0  0  0  0  0  0  0  0  0  0  0
   -0.1506   -2.7740   33.0347 C   0  0  0  0  0  0  0  0  0  0  0  0
    0.5978   -4.1074   33.1874 C   0  0  0  0  0  0  0  0  0  0  0  0
   -0.0036   -5.2583   32.5496 N   0  0  0  0  0  0  0  0  0  0  0  0
   -0.7327   -6.2385   33.1527 C   0  0  0  0  0  0  0  0  0  0  0  0
   -0.9603   -7.2073   32.2934 N   0  0  0  0  0  0  0  0  0  0  0  0
   -0.3662   -6.8605   31.1032 N   0  0  0  0  0  0  0  0  0  0  0  0
    0.2053   -5.6908   31.2754 C   0  0  0  0  0  0  0  0  0  0  0  0
   -0.1697   -1.4588   29.6087 N   0  0  0  0  0  0  0  0  0  0  0  0
    1.0268   -2.1275   28.9409 C   0  0  0  0  0  0  0  0  0  0  0  0
    2.2966   -1.5671   29.4846 N   0  0  0  0  0  0  0  0  0  0  0  0
    2.7327    0.0351   29.1271 C   0  0  0  0  0  0  0  0  0  0  0  0
    2.2632    0.6842   27.4251 C   0  0  0  0  0  0  0  0  0  0  0  0
    3.3005    1.6936   27.2718 C   0  0  0  0  0  0  0  0  0  0  0  0
    3.5795    2.9933   26.2875 S   0  0  0  0  0  0  0  0  0  0  0  0
    4.9752    3.3986   27.2471 C   0  0  0  0  0  0  0  0  0  0  0  0
    5.1652    2.5243   28.3117 C   0  0  0  0  0  0  0  0  0  0  0  0
    4.1744    1.5323   28.2831 C   0  0  0  0  0  0  0  0  0  0  0  0
    3.6336    0.2161   29.1760 C   0  0  0  0  0  0  0  0  0  0  0  0
    2.4058    0.7443   30.4071 N   0  0  0  0  0  0  0  0  0  0  0  0
    3.0905    1.4815   31.3581 C   0  0  0  0  0  0  0  0  0  0  0  0
    3.2434    2.6961   31.3085 O   0  0  0  0  0  0  0  0  0  0  0  0
    3.5588    0.6232   32.5392 C   0  0  0  0  0  0  0  0  0  0  0  0
    5.0496    1.3016   33.3035 S   0  0  0  0  0  0  0  0  0  0  0  0
    2.2298    0.5075   33.7147 Cl  0  0  0  0  0  0  0  0  0  0  0  0
   -0.4875   -1.0836   28.1810 C   0  0  0  0  0  0  0  0  0  0  0  0
   -1.2206    0.2514   28.0606 C   0  0  0  0  0  0  0  0  0  0  0  0
   -0.8552    1.3684   28.8188 C   0  0  0  0  0  0  0  0  0  0  0  0
   -1.2356    2.6514   28.4156 C   0  0  0  0  0  0  0  0  0  0  0  0
   -2.0637    2.8279   27.3133 C   0  0  0  0  0  0  0  0  0  0  0  0
   -2.4893    1.7231   26.5885 C   0  0  0  0  0  0  0  0  0  0  0  0
   -2.0497    0.4480   26.9455 C   0  0  0  0  0  0  0  0  0  0  0  0
    0.5750   -1.4111   31.5615 H   0  0  0  0  0  0  0  0  0  0  0  0
   -1.2154   -2.9113   33.2510 H   0  0  0  0  0  0  0  0  0  0  0  0
    0.2582   -2.0395   33.7348 H   0  0  0  0  0  0  0  0  0  0  0  0
    0.6789   -4.3476   34.2546 H   0  0  0  0  0  0  0  0  0  0  0  0
    1.6192   -4.0180   32.7976 H   0  0  0  0  0  0  0  0  0  0  0  0
   -1.0599   -6.2126   34.1836 H   0  0  0  0  0  0  0  0  0  0  0  0
    0.7643   -5.1440   30.5327 H   0  0  0  0  0  0  0  0  0  0  0  0
    1.0312   -3.1511   29.3450 H   0  0  0  0  0  0  0  0  0  0  0  0
    1.1221   -2.3838   27.8734 H   0  0  0  0  0  0  0  0  0  0  0  0
    2.1869   -1.5574   30.4966 H   0  0  0  0  0  0  0  0  0  0  0  0
    1.6050    0.1070   29.0948 H   0  0  0  0  0  0  0  0  0  0  0  0
    2.3766   -0.1519   26.7313 H   0  0  0  0  0  0  0  0  0  0  0  0
    1.2742    1.1322   27.4190 H   0  0  0  0  0  0  0  0  0  0  0  0
    5.5579    4.2726   26.9897 H   0  0  0  0  0  0  0  0  0  0  0  0
    5.9527    2.6351   29.0464 H   0  0  0  0  0  0  0  0  0  0  0  0
    4.3392   -0.7753   29.0872 H   0  0  0  0  0  0  0  0  0  0  0  0
    4.5005    0.4718   29.9251 H   0  0  0  0  0  0  0  0  0  0  0  0
    3.7818   -0.3927   32.2003 H   0  0  0  0  0  0  0  0  0  0  0  0
    4.5983    2.5672   33.3448 H   0  0  0  0  0  0  0  0  0  0  0  0
   -1.1523   -1.8691   27.7949 H   0  0  0  0  0  0  0  0  0  0  0  0
    0.3147   -0.8742   27.4641 H   0  0  0  0  0  0  0  0  0  0  0  0
   -0.2114    1.2700   29.6873 H   0  0  0  0  0  0  0  0  0  0  0  0
   -0.9019    3.5227   28.9757 H   0  0  0  0  0  0  0  0  0  0  0  0
   -2.3939    3.8255   27.0338 H   0  0  0  0  0  0  0  0  0  0  0  0
   -3.1525    1.8611   25.7392 H   0  0  0  0  0  0  0  0  0  0  0  0
   -2.3303   -0.4003   26.3237 H   0  0  0  0  0  0  0  0  0  0  0  0
  1  2  2  0
  2  3  1  0
  3  4  1  0
  4  5  1  0
  5  6  1  0
  6  7  1  0
  7  8  2  0
  8  9  1  0
  9 10  2  0
  2 11  1  0
 11 12  1  0
 12 13  1  0
 13 14  1  0
 14 15  1  0
 15 16  1  0
 16 17  1  0
 17 18  1  0
 18 19  2  0
 19 20  1  0
 20 21  1  0
 21 22  1  0
 22 23  1  0
 23 24  2  0
 23 25  1  0
 25 26  1  0
 25 27  1  0
 11 28  1  0
 28 29  1  0
 29 30  2  0
 30 31  1  0
 31 32  2  0
 32 33  1  0
 33 34  2  0
 10  6  1  0
 22 14  1  0
 34 29  1  0
 20 16  2  0
  3 35  1  0
  4 36  1  0
  4 37  1  0
  5 38  1  0
  5 39  1  0
  7 40  1  0
 10 41  1  0
 12 42  1  0
 12 43  1  0
 13 44  1  0
 14 45  1  0
 15 46  1  0
 15 47  1  0
 18 48  1  0
 19 49  1  0
 21 50  1  0
 21 51  1  0
 25 52  1  0
 26 53  1  0
 28 54  1  0
 28 55  1  0
 30 56  1  0
 31 57  1  0
 32 58  1  0
 33 59  1  0
 34 60  1  0
M  END
>  <Energy>  (851) 
606.58100620967866

>  <compound_id>  (851) 
2633

>  <target_id>  (851) 
1

>  <reference_id>  (851) 
57

>  <inspiration_ids>  (851) 
[130, 57]

>  <energy_score>  (851) 
627.1622525039841

>  <distance_score>  (851) 
3.026405303255137

>  <path>  (851) 
/opt/xchem-fragalysis-2/maxwin/BulkDock/SCRATCH/505734/C2633-P57/C2633-P57.minimised.mol

>  <scratch_subdir>  (851) 
/opt/xchem-fragalysis-2/maxwin/BulkDock/SCRATCH/505734/C2633-P57

>  <fragmenstein_runtime>  (851) 
15.211781978607178

>  <fragmenstein_outcome>  (851) 
too moved

>  <fragmenstein_mode>  (851) 
expansion

>  <fragmenstein_error>  (851) 


$$$$
C3771-P130
     RDKit          3D

 43 45  0  0  0  0  0  0  0  0999 V2000
    0.9300   -2.2603   29.1871 C   0  0  0  0  0  0  0  0  0  0  0  0
   -0.3202   -2.7786   29.7314 N   0  0  0  0  0  0  0  0  0  0  0  0
   -1.4769   -1.9005   29.4314 C   0  0  0  0  0  0  0  0  0  0  0  0
   -1.1983   -0.4508   29.0549 C   0  0  0  0  0  0  0  0  0  0  0  0
   -0.5775    0.4418   29.9395 C   0  0  0  0  0  0  0  0  0  0  0  0
   -0.2647    1.7419   29.5391 C   0  0  0  0  0  0  0  0  0  0  0  0
   -0.6607    2.2028   28.2873 C   0  0  0  0  0  0  0  0  0  0  0  0
   -1.3288    1.3476   27.4187 C   0  0  0  0  0  0  0  0  0  0  0  0
   -1.5670    0.0226   27.7872 C   0  0  0  0  0  0  0  0  0  0  0  0
   -0.2984   -3.2084   31.1079 C   0  0  0  0  0  0  0  0  0  0  0  0
   -1.4873   -3.8791   31.4404 O   0  0  0  0  0  0  0  0  0  0  0  0
   -0.2328   -2.0876   31.9451 O   0  0  0  0  0  0  0  0  0  0  0  0
    0.8423   -4.0575   31.4134 N   0  0  0  0  0  0  0  0  0  0  0  0
    1.0149   -4.3165   32.8609 C   0  0  0  0  0  0  0  0  0  0  0  0
    1.3765   -5.7340   33.3109 C   0  0  0  0  0  0  0  0  0  0  0  0
    0.2556   -6.6618   33.0651 C   0  0  0  0  0  0  0  0  0  0  0  0
   -0.4053   -7.3351   33.9768 N   0  0  0  0  0  0  0  0  0  0  0  0
   -1.4348   -7.9830   33.3523 N   0  0  0  0  0  0  0  0  0  0  0  0
   -1.3556   -7.7267   32.0741 C   0  0  0  0  0  0  0  0  0  0  0  0
   -0.3018   -6.9070   31.8454 N   0  0  0  0  0  0  0  0  0  0  0  0
    0.0789   -6.3916   30.5647 C   0  0  0  0  0  0  0  0  0  0  0  0
    1.0574   -5.2197   30.5428 C   0  0  0  0  0  0  0  0  0  0  0  0
    1.7339   -3.0001   29.1698 H   0  0  0  0  0  0  0  0  0  0  0  0
    1.3229   -1.4081   29.7505 H   0  0  0  0  0  0  0  0  0  0  0  0
    0.8115   -1.9646   28.1400 H   0  0  0  0  0  0  0  0  0  0  0  0
   -2.2035   -1.8795   30.2523 H   0  0  0  0  0  0  0  0  0  0  0  0
   -2.0053   -2.3728   28.5976 H   0  0  0  0  0  0  0  0  0  0  0  0
   -0.3057    0.1255   30.9408 H   0  0  0  0  0  0  0  0  0  0  0  0
    0.2494    2.4143   30.2210 H   0  0  0  0  0  0  0  0  0  0  0  0
   -0.4697    3.2331   27.9985 H   0  0  0  0  0  0  0  0  0  0  0  0
   -1.6655    1.7096   26.4518 H   0  0  0  0  0  0  0  0  0  0  0  0
   -2.0530   -0.6426   27.0747 H   0  0  0  0  0  0  0  0  0  0  0  0
   -1.6197   -3.5865   32.3588 H   0  0  0  0  0  0  0  0  0  0  0  0
    0.7231   -1.9341   31.9798 H   0  0  0  0  0  0  0  0  0  0  0  0
    0.1328   -4.0118   33.4392 H   0  0  0  0  0  0  0  0  0  0  0  0
    1.8243   -3.6547   33.1953 H   0  0  0  0  0  0  0  0  0  0  0  0
    2.2965   -6.0914   32.8387 H   0  0  0  0  0  0  0  0  0  0  0  0
    1.5868   -5.7110   34.3878 H   0  0  0  0  0  0  0  0  0  0  0  0
   -2.0410   -8.0816   31.3290 H   0  0  0  0  0  0  0  0  0  0  0  0
   -0.8290   -6.1177   30.0358 H   0  0  0  0  0  0  0  0  0  0  0  0
    0.5221   -7.2342   30.0220 H   0  0  0  0  0  0  0  0  0  0  0  0
    1.1295   -4.9168   29.4939 H   0  0  0  0  0  0  0  0  0  0  0  0
    2.0672   -5.6018   30.7403 H   0  0  0  0  0  0  0  0  0  0  0  0
  1  2  1  0
  2  3  1  0
  3  4  1  0
  4  5  2  0
  5  6  1  0
  6  7  2  0
  7  8  1  0
  8  9  2  0
  2 10  1  0
 10 11  1  0
 10 12  1  0
 10 13  1  0
 13 14  1  0
 14 15  1  0
 15 16  1  0
 16 17  2  0
 17 18  1  0
 18 19  2  0
 19 20  1  0
 20 21  1  0
 21 22  1  0
  9  4  1  0
 22 13  1  0
 20 16  1  0
  1 23  1  0
  1 24  1  0
  1 25  1  0
  3 26  1  0
  3 27  1  0
  5 28  1  0
  6 29  1  0
  7 30  1  0
  8 31  1  0
  9 32  1  0
 11 33  1  0
 12 34  1  0
 14 35  1  0
 14 36  1  0
 15 37  1  0
 15 38  1  0
 19 39  1  0
 21 40  1  0
 21 41  1  0
 22 42  1  0
 22 43  1  0
M  END
>  <Energy>  (852) 
-165.68637060661885

>  <compound_id>  (852) 
3771

>  <target_id>  (852) 
1

>  <reference_id>  (852) 
130

>  <inspiration_ids>  (852) 
[130, 72]

>  <energy_score>  (852) 
-36.010411625314816

>  <distance_score>  (852) 
0.7297815957725934

>  <path>  (852) 
/opt/xchem-fragalysis-2/maxwin/BulkDock/SCRATCH/505734/C3771-P130/C3771-P130.minimised.mol

>  <scratch_subdir>  (852) 
/opt/xchem-fragalysis-2/maxwin/BulkDock/SCRATCH/505734/C3771-P130

>  <fragmenstein_runtime>  (852) 
5.995835065841675

>  <fragmenstein_outcome>  (852) 
acceptable

>  <fragmenstein_mode>  (852) 
expansion

>  <fragmenstein_error>  (852) 


$$$$
C3771-P72
     RDKit          3D

 43 45  0  0  0  0  0  0  0  0999 V2000
    0.9584   -2.3974   29.1163 C   0  0  0  0  0  0  0  0  0  0  0  0
   -0.3011   -2.8235   29.7163 N   0  0  0  0  0  0  0  0  0  0  0  0
   -1.4158   -1.8945   29.4133 C   0  0  0  0  0  0  0  0  0  0  0  0
   -1.0764   -0.4744   28.9802 C   0  0  0  0  0  0  0  0  0  0  0  0
   -0.3344    0.3979   29.7887 C   0  0  0  0  0  0  0  0  0  0  0  0
    0.0341    1.6628   29.3242 C   0  0  0  0  0  0  0  0  0  0  0  0
   -0.4210    2.1122   28.0872 C   0  0  0  0  0  0  0  0  0  0  0  0
   -1.2074    1.2806   27.2971 C   0  0  0  0  0  0  0  0  0  0  0  0
   -1.5095   -0.0117   27.7281 C   0  0  0  0  0  0  0  0  0  0  0  0
   -0.2690   -3.2194   31.0996 C   0  0  0  0  0  0  0  0  0  0  0  0
   -1.4780   -3.8279   31.4796 O   0  0  0  0  0  0  0  0  0  0  0  0
   -0.1486   -2.0793   31.9058 O   0  0  0  0  0  0  0  0  0  0  0  0
    0.8384   -4.1048   31.4232 N   0  0  0  0  0  0  0  0  0  0  0  0
    0.9816   -4.3346   32.8800 C   0  0  0  0  0  0  0  0  0  0  0  0
    1.3764   -5.7327   33.3613 C   0  0  0  0  0  0  0  0  0  0  0  0
    0.2654   -6.6839   33.1594 C   0  0  0  0  0  0  0  0  0  0  0  0
   -0.3578   -7.3577   34.0979 N   0  0  0  0  0  0  0  0  0  0  0  0
   -1.4012   -8.0213   33.5154 N   0  0  0  0  0  0  0  0  0  0  0  0
   -1.3656   -7.7729   32.2339 C   0  0  0  0  0  0  0  0  0  0  0  0
   -0.3253   -6.9498   31.9604 N   0  0  0  0  0  0  0  0  0  0  0  0
    0.0174   -6.4577   30.6599 C   0  0  0  0  0  0  0  0  0  0  0  0
    1.0078   -5.2981   30.5848 C   0  0  0  0  0  0  0  0  0  0  0  0
    1.7179   -3.1821   29.0958 H   0  0  0  0  0  0  0  0  0  0  0  0
    1.4206   -1.5558   29.6411 H   0  0  0  0  0  0  0  0  0  0  0  0
    0.8226   -2.1275   28.0632 H   0  0  0  0  0  0  0  0  0  0  0  0
   -2.1355   -1.8168   30.2379 H   0  0  0  0  0  0  0  0  0  0  0  0
   -1.9699   -2.3619   28.5974 H   0  0  0  0  0  0  0  0  0  0  0  0
   -0.0096    0.0924   30.7773 H   0  0  0  0  0  0  0  0  0  0  0  0
    0.6345    2.3207   29.9470 H   0  0  0  0  0  0  0  0  0  0  0  0
   -0.1825    3.1173   27.7491 H   0  0  0  0  0  0  0  0  0  0  0  0
   -1.5828    1.6323   26.3401 H   0  0  0  0  0  0  0  0  0  0  0  0
   -2.0840   -0.6628   27.0700 H   0  0  0  0  0  0  0  0  0  0  0  0
   -1.6839   -3.3058   32.2756 H   0  0  0  0  0  0  0  0  0  0  0  0
    0.8141   -1.9683   31.9269 H   0  0  0  0  0  0  0  0  0  0  0  0
    0.0720   -4.0518   33.4270 H   0  0  0  0  0  0  0  0  0  0  0  0
    1.7605   -3.6424   33.2251 H   0  0  0  0  0  0  0  0  0  0  0  0
    2.2956   -6.0870   32.8855 H   0  0  0  0  0  0  0  0  0  0  0  0
    1.6006   -5.6770   34.4342 H   0  0  0  0  0  0  0  0  0  0  0  0
   -2.0757   -8.1351   31.5186 H   0  0  0  0  0  0  0  0  0  0  0  0
   -0.9048   -6.1874   30.1549 H   0  0  0  0  0  0  0  0  0  0  0  0
    0.4364   -7.3147   30.1193 H   0  0  0  0  0  0  0  0  0  0  0  0
    1.0598   -5.0294   29.5267 H   0  0  0  0  0  0  0  0  0  0  0  0
    2.0158   -5.6907   30.7711 H   0  0  0  0  0  0  0  0  0  0  0  0
  1  2  1  0
  2  3  1  0
  3  4  1  0
  4  5  2  0
  5  6  1  0
  6  7  2  0
  7  8  1  0
  8  9  2  0
  2 10  1  0
 10 11  1  0
 10 12  1  0
 10 13  1  0
 13 14  1  0
 14 15  1  0
 15 16  1  0
 16 17  2  0
 17 18  1  0
 18 19  2  0
 19 20  1  0
 20 21  1  0
 21 22  1  0
  9  4  1  0
 22 13  1  0
 20 16  1  0
  1 23  1  0
  1 24  1  0
  1 25  1  0
  3 26  1  0
  3 27  1  0
  5 28  1  0
  6 29  1  0
  7 30  1  0
  8 31  1  0
  9 32  1  0
 11 33  1  0
 12 34  1  0
 14 35  1  0
 14 36  1  0
 15 37  1  0
 15 38  1  0
 19 39  1  0
 21 40  1  0
 21 41  1  0
 22 42  1  0
 22 43  1  0
M  END
>  <Energy>  (853) 
-164.89105155884278

>  <compound_id>  (853) 
3771

>  <target_id>  (853) 
1

>  <reference_id>  (853) 
72

>  <inspiration_ids>  (853) 
[130, 72]

>  <energy_score>  (853) 
-35.215092577537035

>  <distance_score>  (853) 
0.8068993723800136

>  <path>  (853) 
/opt/xchem-fragalysis-2/maxwin/BulkDock/SCRATCH/505734/C3771-P72/C3771-P72.minimised.mol

>  <scratch_subdir>  (853) 
/opt/xchem-fragalysis-2/maxwin/BulkDock/SCRATCH/505734/C3771-P72

>  <fragmenstein_runtime>  (853) 
5.912791967391968

>  <fragmenstein_outcome>  (853) 
acceptable

>  <fragmenstein_mode>  (853) 
expansion

>  <fragmenstein_error>  (853) 


$$$$
C3775-P130
     RDKit          3D

 41 43  0  0  0  0  0  0  0  0999 V2000
   -1.2425   -7.6662   33.4009 C   0  0  0  0  0  0  0  0  0  0  0  0
   -0.5737   -6.9191   32.3233 C   0  0  0  0  0  0  0  0  0  0  0  0
   -0.2775   -7.3205   31.1017 N   0  0  0  0  0  0  0  0  0  0  0  0
    0.4150   -6.2986   30.4663 N   0  0  0  0  0  0  0  0  0  0  0  0
    0.5020   -5.3001   31.3151 C   0  0  0  0  0  0  0  0  0  0  0  0
   -0.1173   -5.6567   32.4657 N   0  0  0  0  0  0  0  0  0  0  0  0
   -0.1459   -4.7412   33.5620 C   0  0  0  0  0  0  0  0  0  0  0  0
    0.8008   -3.5979   33.1905 C   0  0  0  0  0  0  0  0  0  0  0  0
    0.4596   -2.7767   31.9612 N   0  0  0  0  0  0  0  0  0  0  0  0
   -0.8212   -2.5127   31.3232 C   0  0  0  0  0  0  0  0  0  0  0  0
   -1.8898   -2.9498   31.5593 O   0  0  0  0  0  0  0  0  0  0  0  0
   -0.4607   -1.3899   30.2852 N   0  0  0  0  0  0  0  0  0  0  0  0
   -0.1249   -2.0207   28.8638 C   0  0  0  0  0  0  0  0  0  0  0  0
   -0.4993   -0.1311   30.8914 O   0  0  0  0  0  0  0  0  0  0  0  0
   -1.4240   -0.4644   29.3546 C   0  0  0  0  0  0  0  0  0  0  0  0
   -0.9047    0.7279   28.4978 C   0  0  0  0  0  0  0  0  0  0  0  0
    0.3042    1.3967   28.7506 C   0  0  0  0  0  0  0  0  0  0  0  0
    0.6602    2.5367   28.0271 C   0  0  0  0  0  0  0  0  0  0  0  0
   -0.1855    3.0305   27.0391 C   0  0  0  0  0  0  0  0  0  0  0  0
   -1.3789    2.3736   26.7599 C   0  0  0  0  0  0  0  0  0  0  0  0
   -1.7264    1.2247   27.4724 C   0  0  0  0  0  0  0  0  0  0  0  0
    1.1842   -3.9606   31.2436 C   0  0  0  0  0  0  0  0  0  0  0  0
   -0.4964   -8.1094   34.0627 H   0  0  0  0  0  0  0  0  0  0  0  0
   -1.8730   -8.4504   32.9780 H   0  0  0  0  0  0  0  0  0  0  0  0
   -1.8656   -7.0151   34.0172 H   0  0  0  0  0  0  0  0  0  0  0  0
   -1.1697   -4.3887   33.6884 H   0  0  0  0  0  0  0  0  0  0  0  0
    0.1870   -5.2525   34.4698 H   0  0  0  0  0  0  0  0  0  0  0  0
    1.8714   -3.8154   33.3468 H   0  0  0  0  0  0  0  0  0  0  0  0
    0.6246   -2.8561   33.9859 H   0  0  0  0  0  0  0  0  0  0  0  0
    0.9090   -2.3427   28.9851 H   0  0  0  0  0  0  0  0  0  0  0  0
   -0.0465   -1.3722   27.9880 H   0  0  0  0  0  0  0  0  0  0  0  0
   -0.7757   -2.8890   28.7177 H   0  0  0  0  0  0  0  0  0  0  0  0
   -2.2480   -0.0791   29.9997 H   0  0  0  0  0  0  0  0  0  0  0  0
   -2.0343   -1.1367   28.7193 H   0  0  0  0  0  0  0  0  0  0  0  0
    0.9680    1.0679   29.5465 H   0  0  0  0  0  0  0  0  0  0  0  0
    1.5835    3.0593   28.2620 H   0  0  0  0  0  0  0  0  0  0  0  0
    0.0742    3.9384   26.5017 H   0  0  0  0  0  0  0  0  0  0  0  0
   -2.0551    2.7674   26.0046 H   0  0  0  0  0  0  0  0  0  0  0  0
   -2.6642    0.7385   27.2278 H   0  0  0  0  0  0  0  0  0  0  0  0
    2.2599   -4.0015   31.4764 H   0  0  0  0  0  0  0  0  0  0  0  0
    1.1853   -3.7328   30.1826 H   0  0  0  0  0  0  0  0  0  0  0  0
  1  2  1  0
  2  3  2  0
  3  4  1  0
  4  5  2  0
  5  6  1  0
  6  7  1  0
  7  8  1  0
  8  9  1  0
  9 10  1  0
 10 11  2  0
 10 12  1  0
 12 13  1  0
 12 14  1  0
 12 15  1  0
 15 16  1  0
 16 17  2  0
 17 18  1  0
 18 19  2  0
 19 20  1  0
 20 21  2  0
  9 22  1  0
  6  2  1  0
 21 16  1  0
 22  5  1  0
  1 23  1  0
  1 24  1  0
  1 25  1  0
  7 26  1  0
  7 27  1  0
  8 28  1  0
  8 29  1  0
 13 30  1  0
 13 31  1  0
 13 32  1  0
 15 33  1  0
 15 34  1  0
 17 35  1  0
 18 36  1  0
 19 37  1  0
 20 38  1  0
 21 39  1  0
 22 40  1  0
 22 41  1  0
M  CHG  2  12   1  14  -1
M  END
>  <Energy>  (854) 
263.23767877904277

>  <compound_id>  (854) 
3775

>  <target_id>  (854) 
1

>  <reference_id>  (854) 
130

>  <inspiration_ids>  (854) 
[130, 128]

>  <energy_score>  (854) 
182.91508300389177

>  <distance_score>  (854) 
1.6340478144937203

>  <path>  (854) 
/opt/xchem-fragalysis-2/maxwin/BulkDock/SCRATCH/505734/C3775-P130/C3775-P130.minimised.mol

>  <scratch_subdir>  (854) 
/opt/xchem-fragalysis-2/maxwin/BulkDock/SCRATCH/505734/C3775-P130

>  <fragmenstein_runtime>  (854) 
4.472443103790283

>  <fragmenstein_outcome>  (854) 
too moved

>  <fragmenstein_mode>  (854) 
expansion

>  <fragmenstein_error>  (854) 


$$$$
C3775-P128
     RDKit          3D

 41 43  0  0  0  0  0  0  0  0999 V2000
   -1.2980   -7.7155   33.3633 C   0  0  0  0  0  0  0  0  0  0  0  0
   -0.5953   -6.9497   32.3201 C   0  0  0  0  0  0  0  0  0  0  0  0
   -0.2769   -7.3163   31.0927 N   0  0  0  0  0  0  0  0  0  0  0  0
    0.4459   -6.2858   30.5055 N   0  0  0  0  0  0  0  0  0  0  0  0
    0.5275   -5.3175   31.3886 C   0  0  0  0  0  0  0  0  0  0  0  0
   -0.1273   -5.6982   32.5107 N   0  0  0  0  0  0  0  0  0  0  0  0
   -0.2001   -4.8036   33.6225 C   0  0  0  0  0  0  0  0  0  0  0  0
    0.7460   -3.6413   33.3059 C   0  0  0  0  0  0  0  0  0  0  0  0
    0.4528   -2.8122   32.0671 N   0  0  0  0  0  0  0  0  0  0  0  0
   -0.8001   -2.5541   31.3747 C   0  0  0  0  0  0  0  0  0  0  0  0
   -1.8740   -3.0020   31.5595 O   0  0  0  0  0  0  0  0  0  0  0  0
   -0.4055   -1.4183   30.3593 N   0  0  0  0  0  0  0  0  0  0  0  0
   -0.0019   -2.0351   28.9497 C   0  0  0  0  0  0  0  0  0  0  0  0
   -0.4831   -0.1651   30.9714 O   0  0  0  0  0  0  0  0  0  0  0  0
   -1.3362   -0.4964   29.3948 C   0  0  0  0  0  0  0  0  0  0  0  0
   -0.8103    0.6947   28.5453 C   0  0  0  0  0  0  0  0  0  0  0  0
    0.2805    1.4956   28.9175 C   0  0  0  0  0  0  0  0  0  0  0  0
    0.6126    2.6406   28.1906 C   0  0  0  0  0  0  0  0  0  0  0  0
   -0.1422    3.0085   27.0814 C   0  0  0  0  0  0  0  0  0  0  0  0
   -1.2154    2.2192   26.6840 C   0  0  0  0  0  0  0  0  0  0  0  0
   -1.5338    1.0629   27.3975 C   0  0  0  0  0  0  0  0  0  0  0  0
    1.2178   -3.9825   31.3749 C   0  0  0  0  0  0  0  0  0  0  0  0
   -0.5749   -8.1433   34.0587 H   0  0  0  0  0  0  0  0  0  0  0  0
   -1.8942   -8.5106   32.9133 H   0  0  0  0  0  0  0  0  0  0  0  0
   -1.9552   -7.0744   33.9532 H   0  0  0  0  0  0  0  0  0  0  0  0
   -1.2328   -4.4662   33.7214 H   0  0  0  0  0  0  0  0  0  0  0  0
    0.1079   -5.3293   34.5308 H   0  0  0  0  0  0  0  0  0  0  0  0
    1.8111   -3.8451   33.5106 H   0  0  0  0  0  0  0  0  0  0  0  0
    0.5213   -2.9100   34.0988 H   0  0  0  0  0  0  0  0  0  0  0  0
    0.1268   -1.3748   28.0884 H   0  0  0  0  0  0  0  0  0  0  0  0
   -0.6447   -2.9012   28.7611 H   0  0  0  0  0  0  0  0  0  0  0  0
    1.0237   -2.3612   29.1174 H   0  0  0  0  0  0  0  0  0  0  0  0
   -2.1893   -0.1155   30.0037 H   0  0  0  0  0  0  0  0  0  0  0  0
   -1.9150   -1.1796   28.7428 H   0  0  0  0  0  0  0  0  0  0  0  0
    0.8637    1.2696   29.8068 H   0  0  0  0  0  0  0  0  0  0  0  0
    1.4394    3.2658   28.5162 H   0  0  0  0  0  0  0  0  0  0  0  0
    0.0920    3.9206   26.5397 H   0  0  0  0  0  0  0  0  0  0  0  0
   -1.8227    2.5128   25.8312 H   0  0  0  0  0  0  0  0  0  0  0  0
   -2.3735    0.4644   27.0552 H   0  0  0  0  0  0  0  0  0  0  0  0
    2.2793   -4.0306   31.6647 H   0  0  0  0  0  0  0  0  0  0  0  0
    1.2810   -3.7382   30.3199 H   0  0  0  0  0  0  0  0  0  0  0  0
  1  2  1  0
  2  3  2  0
  3  4  1  0
  4  5  2  0
  5  6  1  0
  6  7  1  0
  7  8  1  0
  8  9  1  0
  9 10  1  0
 10 11  2  0
 10 12  1  0
 12 13  1  0
 12 14  1  0
 12 15  1  0
 15 16  1  0
 16 17  2  0
 17 18  1  0
 18 19  2  0
 19 20  1  0
 20 21  2  0
  9 22  1  0
  6  2  1  0
 21 16  1  0
 22  5  1  0
  1 23  1  0
  1 24  1  0
  1 25  1  0
  7 26  1  0
  7 27  1  0
  8 28  1  0
  8 29  1  0
 13 30  1  0
 13 31  1  0
 13 32  1  0
 15 33  1  0
 15 34  1  0
 17 35  1  0
 18 36  1  0
 19 37  1  0
 20 38  1  0
 21 39  1  0
 22 40  1  0
 22 41  1  0
M  CHG  2  12   1  14  -1
M  END
>  <Energy>  (855) 
263.28222586324466

>  <compound_id>  (855) 
3775

>  <target_id>  (855) 
1

>  <reference_id>  (855) 
128

>  <inspiration_ids>  (855) 
[130, 128]

>  <energy_score>  (855) 
182.95963008809235

>  <distance_score>  (855) 
1.6296261249830781

>  <path>  (855) 
/opt/xchem-fragalysis-2/maxwin/BulkDock/SCRATCH/505734/C3775-P128/C3775-P128.minimised.mol

>  <scratch_subdir>  (855) 
/opt/xchem-fragalysis-2/maxwin/BulkDock/SCRATCH/505734/C3775-P128

>  <fragmenstein_runtime>  (855) 
5.065541744232178

>  <fragmenstein_outcome>  (855) 
too moved

>  <fragmenstein_mode>  (855) 
expansion

>  <fragmenstein_error>  (855) 


$$$$
C3776-P130
     RDKit          3D

 44 46  0  0  0  0  0  0  0  0999 V2000
   -0.3589   -2.0942   28.7991 C   0  0  0  0  0  0  0  0  0  0  0  0
   -0.2750   -0.6088   28.6296 C   0  0  0  0  0  0  0  0  0  0  0  0
   -1.3598    0.1020   28.1061 C   0  0  0  0  0  0  0  0  0  0  0  0
   -1.3323    1.4980   28.0057 C   0  0  0  0  0  0  0  0  0  0  0  0
   -0.2056    2.2120   28.4129 C   0  0  0  0  0  0  0  0  0  0  0  0
    0.9064    1.5309   28.8968 C   0  0  0  0  0  0  0  0  0  0  0  0
    0.8641    0.1299   28.9907 C   0  0  0  0  0  0  0  0  0  0  0  0
    2.3442   -0.6764   29.5433 C   0  0  0  0  0  0  0  0  0  0  0  0
    2.1742   -1.7135   31.1194 N   0  0  0  0  0  0  0  0  0  0  0  0
    2.5871   -0.4032   31.8314 C   0  0  0  0  0  0  0  0  0  0  0  0
    2.3985   -0.7809   30.1318 O   0  0  0  0  0  0  0  0  0  0  0  0
    3.0520   -2.8625   31.6040 C   0  0  0  0  0  0  0  0  0  0  0  0
    4.0267   -3.2575   31.1985 O   0  0  0  0  0  0  0  0  0  0  0  0
    2.1626   -3.2818   32.8822 N   0  0  0  0  0  0  0  0  0  0  0  0
    2.3748   -4.4987   34.4104 C   0  0  0  0  0  0  0  0  0  0  0  0
    0.8050   -5.0851   35.0130 C   0  0  0  0  0  0  0  0  0  0  0  0
    0.2852   -5.6404   33.8003 N   0  0  0  0  0  0  0  0  0  0  0  0
   -0.3712   -6.7469   33.4154 C   0  0  0  0  0  0  0  0  0  0  0  0
   -1.2661   -7.5083   34.2989 C   0  0  0  0  0  0  0  0  0  0  0  0
    0.0012   -7.0217   32.1726 N   0  0  0  0  0  0  0  0  0  0  0  0
    1.0359   -6.1490   31.8124 N   0  0  0  0  0  0  0  0  0  0  0  0
    1.1567   -5.3246   32.8192 C   0  0  0  0  0  0  0  0  0  0  0  0
    2.4415   -4.3336   33.6129 C   0  0  0  0  0  0  0  0  0  0  0  0
    0.4522   -2.6001   28.2710 H   0  0  0  0  0  0  0  0  0  0  0  0
   -0.3142   -2.3538   29.8614 H   0  0  0  0  0  0  0  0  0  0  0  0
   -1.3025   -2.4877   28.4091 H   0  0  0  0  0  0  0  0  0  0  0  0
   -2.2343   -0.4397   27.7544 H   0  0  0  0  0  0  0  0  0  0  0  0
   -2.1954    2.0273   27.6071 H   0  0  0  0  0  0  0  0  0  0  0  0
   -0.1941    3.2959   28.3347 H   0  0  0  0  0  0  0  0  0  0  0  0
    1.8009    2.0708   29.1887 H   0  0  0  0  0  0  0  0  0  0  0  0
    3.3962    0.0378   29.1323 H   0  0  0  0  0  0  0  0  0  0  0  0
    2.3891   -1.5377   28.6114 H   0  0  0  0  0  0  0  0  0  0  0  0
    1.8428    0.4099   31.7446 H   0  0  0  0  0  0  0  0  0  0  0  0
    2.5237   -0.6784   32.8939 H   0  0  0  0  0  0  0  0  0  0  0  0
    3.6471   -0.1268   31.6793 H   0  0  0  0  0  0  0  0  0  0  0  0
    2.5403   -3.7003   35.3132 H   0  0  0  0  0  0  0  0  0  0  0  0
    3.2996   -5.2865   34.7886 H   0  0  0  0  0  0  0  0  0  0  0  0
    0.1902   -4.2409   35.3347 H   0  0  0  0  0  0  0  0  0  0  0  0
    0.9678   -5.8476   35.7772 H   0  0  0  0  0  0  0  0  0  0  0  0
   -0.6783   -8.1120   34.9957 H   0  0  0  0  0  0  0  0  0  0  0  0
   -1.8953   -6.8418   34.8924 H   0  0  0  0  0  0  0  0  0  0  0  0
   -1.9134   -8.1609   33.7103 H   0  0  0  0  0  0  0  0  0  0  0  0
    3.6988   -4.1383   33.3597 H   0  0  0  0  0  0  0  0  0  0  0  0
    2.9644   -5.1556   32.8044 H   0  0  0  0  0  0  0  0  0  0  0  0
  1  2  1  0
  2  3  2  0
  3  4  1  0
  4  5  2  0
  5  6  1  0
  6  7  2  0
  7  8  1  0
  8  9  1  0
  9 10  1  0
  9 11  1  0
  9 12  1  0
 12 13  2  0
 12 14  1  0
 14 15  1  0
 15 16  1  0
 16 17  1  0
 17 18  1  0
 18 19  1  0
 18 20  2  0
 20 21  1  0
 21 22  2  0
 22 23  1  0
  7  2  1  0
 23 14  1  0
 22 17  1  0
  1 24  1  0
  1 25  1  0
  1 26  1  0
  3 27  1  0
  4 28  1  0
  5 29  1  0
  6 30  1  0
  8 31  1  0
  8 32  1  0
 10 33  1  0
 10 34  1  0
 10 35  1  0
 15 36  1  0
 15 37  1  0
 16 38  1  0
 16 39  1  0
 19 40  1  0
 19 41  1  0
 19 42  1  0
 23 43  1  0
 23 44  1  0
M  CHG  2   9   1  11  -1
M  END
>  <Energy>  (856) 
1443.7713602902747

>  <compound_id>  (856) 
3776

>  <target_id>  (856) 
1

>  <reference_id>  (856) 
130

>  <inspiration_ids>  (856) 
[130, 129]

>  <energy_score>  (856) 
1299.3637617900035

>  <distance_score>  (856) 
3.1210962461308704

>  <path>  (856) 
/opt/xchem-fragalysis-2/maxwin/BulkDock/SCRATCH/505734/C3776-P130/C3776-P130.minimised.mol

>  <scratch_subdir>  (856) 
/opt/xchem-fragalysis-2/maxwin/BulkDock/SCRATCH/505734/C3776-P130

>  <fragmenstein_runtime>  (856) 
6.2458906173706055

>  <fragmenstein_outcome>  (856) 
too moved

>  <fragmenstein_mode>  (856) 
expansion

>  <fragmenstein_error>  (856) 


$$$$
C3776-P129
     RDKit          3D

 44 46  0  0  0  0  0  0  0  0999 V2000
    1.3343    3.0035   29.5889 C   0  0  0  0  0  0  0  0  0  0  0  0
    0.4553    1.9864   28.9294 C   0  0  0  0  0  0  0  0  0  0  0  0
   -0.6896    2.4093   28.2399 C   0  0  0  0  0  0  0  0  0  0  0  0
   -1.5379    1.4855   27.6278 C   0  0  0  0  0  0  0  0  0  0  0  0
   -1.2565    0.1216   27.6940 C   0  0  0  0  0  0  0  0  0  0  0  0
   -0.1209   -0.3300   28.3549 C   0  0  0  0  0  0  0  0  0  0  0  0
    0.7363    0.6056   28.9497 C   0  0  0  0  0  0  0  0  0  0  0  0
    2.1640   -0.0468   29.7888 C   0  0  0  0  0  0  0  0  0  0  0  0
    1.4506   -0.7879   31.3808 N   0  0  0  0  0  0  0  0  0  0  0  0
    2.6515   -0.0798   32.0444 C   0  0  0  0  0  0  0  0  0  0  0  0
    2.1902   -0.2248   30.3558 O   0  0  0  0  0  0  0  0  0  0  0  0
    1.3907   -2.2369   31.8394 C   0  0  0  0  0  0  0  0  0  0  0  0
    1.8493   -3.1634   31.3912 O   0  0  0  0  0  0  0  0  0  0  0  0
    0.4527   -1.9992   33.1619 N   0  0  0  0  0  0  0  0  0  0  0  0
   -0.4524   -3.1280   34.4843 C   0  0  0  0  0  0  0  0  0  0  0  0
   -0.2386   -4.8365   35.0862 C   0  0  0  0  0  0  0  0  0  0  0  0
   -0.0968   -5.5158   33.8363 N   0  0  0  0  0  0  0  0  0  0  0  0
   -0.7949   -6.4883   33.2168 C   0  0  0  0  0  0  0  0  0  0  0  0
   -1.2773   -7.6974   33.9005 C   0  0  0  0  0  0  0  0  0  0  0  0
   -0.9925   -6.1097   31.9645 N   0  0  0  0  0  0  0  0  0  0  0  0
   -0.5614   -4.7888   31.8308 N   0  0  0  0  0  0  0  0  0  0  0  0
    0.0497   -4.4986   32.9533 C   0  0  0  0  0  0  0  0  0  0  0  0
    0.1997   -2.9665   34.0121 C   0  0  0  0  0  0  0  0  0  0  0  0
    1.5416    2.7209   30.6249 H   0  0  0  0  0  0  0  0  0  0  0  0
    2.2739    3.1089   29.0384 H   0  0  0  0  0  0  0  0  0  0  0  0
    0.8535    3.9874   29.6192 H   0  0  0  0  0  0  0  0  0  0  0  0
   -0.9440    3.4663   28.1863 H   0  0  0  0  0  0  0  0  0  0  0  0
   -2.4280    1.8304   27.1062 H   0  0  0  0  0  0  0  0  0  0  0  0
   -1.9129   -0.5979   27.2096 H   0  0  0  0  0  0  0  0  0  0  0  0
    0.1015   -1.3925   28.3897 H   0  0  0  0  0  0  0  0  0  0  0  0
    2.9905    0.9915   29.6300 H   0  0  0  0  0  0  0  0  0  0  0  0
    2.4684   -0.9153   28.8707 H   0  0  0  0  0  0  0  0  0  0  0  0
    2.4805   -0.2728   33.1133 H   0  0  0  0  0  0  0  0  0  0  0  0
    3.6283   -0.5527   31.8304 H   0  0  0  0  0  0  0  0  0  0  0  0
    2.6068    1.0228   31.9840 H   0  0  0  0  0  0  0  0  0  0  0  0
   -1.6092   -3.1115   34.1143 H   0  0  0  0  0  0  0  0  0  0  0  0
   -0.6999   -2.4662   35.4874 H   0  0  0  0  0  0  0  0  0  0  0  0
   -1.1453   -5.1328   35.6187 H   0  0  0  0  0  0  0  0  0  0  0  0
    0.6745   -4.9221   35.6827 H   0  0  0  0  0  0  0  0  0  0  0  0
   -0.4810   -8.1255   34.5128 H   0  0  0  0  0  0  0  0  0  0  0  0
   -2.1099   -7.4650   34.5688 H   0  0  0  0  0  0  0  0  0  0  0  0
   -1.6114   -8.4343   33.1663 H   0  0  0  0  0  0  0  0  0  0  0  0
    1.1490   -2.6986   34.8994 H   0  0  0  0  0  0  0  0  0  0  0  0
    1.3077   -3.4499   33.7895 H   0  0  0  0  0  0  0  0  0  0  0  0
  1  2  1  0
  2  3  2  0
  3  4  1  0
  4  5  2  0
  5  6  1  0
  6  7  2  0
  7  8  1  0
  8  9  1  0
  9 10  1  0
  9 11  1  0
  9 12  1  0
 12 13  2  0
 12 14  1  0
 14 15  1  0
 15 16  1  0
 16 17  1  0
 17 18  1  0
 18 19  1  0
 18 20  2  0
 20 21  1  0
 21 22  2  0
 22 23  1  0
  7  2  1  0
 23 14  1  0
 22 17  1  0
  1 24  1  0
  1 25  1  0
  1 26  1  0
  3 27  1  0
  4 28  1  0
  5 29  1  0
  6 30  1  0
  8 31  1  0
  8 32  1  0
 10 33  1  0
 10 34  1  0
 10 35  1  0
 15 36  1  0
 15 37  1  0
 16 38  1  0
 16 39  1  0
 19 40  1  0
 19 41  1  0
 19 42  1  0
 23 43  1  0
 23 44  1  0
M  CHG  2   9   1  11  -1
M  END
>  <Energy>  (857) 
1469.4255997572875

>  <compound_id>  (857) 
3776

>  <target_id>  (857) 
1

>  <reference_id>  (857) 
129

>  <inspiration_ids>  (857) 
[130, 129]

>  <energy_score>  (857) 
1325.018001257002

>  <distance_score>  (857) 
3.2177129352285236

>  <path>  (857) 
/opt/xchem-fragalysis-2/maxwin/BulkDock/SCRATCH/505734/C3776-P129/C3776-P129.minimised.mol

>  <scratch_subdir>  (857) 
/opt/xchem-fragalysis-2/maxwin/BulkDock/SCRATCH/505734/C3776-P129

>  <fragmenstein_runtime>  (857) 
9.05837106704712

>  <fragmenstein_outcome>  (857) 
too moved

>  <fragmenstein_mode>  (857) 
expansion

>  <fragmenstein_error>  (857) 


$$$$
C3775-P130
     RDKit          2D

  0  0  0  0  0  0  0  0  0  0999 V2000
M  END
>  <compound_id>  (858) 
3775

>  <target_id>  (858) 
1

>  <reference_id>  (858) 
130

>  <inspiration_ids>  (858) 
[130, 131]

>  <energy_score>  (858) 
nan

>  <distance_score>  (858) 
nan

>  <path>  (858) 
/opt/xchem-fragalysis-2/maxwin/BulkDock/SCRATCH/505734/C3775-P130/C3775-P130.minimised.mol

>  <scratch_subdir>  (858) 
/opt/xchem-fragalysis-2/maxwin/BulkDock/SCRATCH/505734/C3775-P130

>  <fragmenstein_runtime>  (858) 
0.4559752941131592

>  <fragmenstein_outcome>  (858) 
too distant

>  <fragmenstein_mode>  (858) 
expansion

>  <fragmenstein_error>  (858) 
DistanceError: hit0+hit1

$$$$
C3774-P130
     RDKit          3D

 42 43  0  0  0  0  0  0  0  0999 V2000
    0.8708   -6.4002   30.0885 C   0  0  0  0  0  0  0  0  0  0  0  0
   -0.0956   -7.0925   30.9621 C   0  0  0  0  0  0  0  0  0  0  0  0
   -0.9707   -7.9987   30.5813 N   0  0  0  0  0  0  0  0  0  0  0  0
   -1.6724   -8.3947   31.6873 N   0  0  0  0  0  0  0  0  0  0  0  0
   -1.2208   -7.7188   32.7181 C   0  0  0  0  0  0  0  0  0  0  0  0
   -0.2555   -6.8571   32.3034 N   0  0  0  0  0  0  0  0  0  0  0  0
    0.4260   -5.8770   33.1222 C   0  0  0  0  0  0  0  0  0  0  0  0
   -0.1772   -4.4651   33.0029 C   0  0  0  0  0  0  0  0  0  0  0  0
   -0.0434   -3.9152   31.6446 N   0  0  0  0  0  0  0  0  0  0  0  0
   -0.9081   -2.8183   31.3307 C   0  0  0  0  0  0  0  0  0  0  0  0
   -2.2061   -3.2693   31.5962 O   0  0  0  0  0  0  0  0  0  0  0  0
   -0.5888   -1.7241   32.1196 O   0  0  0  0  0  0  0  0  0  0  0  0
   -0.7853   -2.5369   29.9278 N   0  0  0  0  0  0  0  0  0  0  0  0
    0.5609   -2.4623   29.3731 C   0  0  0  0  0  0  0  0  0  0  0  0
   -1.6526   -1.4494   29.4404 C   0  0  0  0  0  0  0  0  0  0  0  0
   -1.0725   -0.1167   29.0252 C   0  0  0  0  0  0  0  0  0  0  0  0
   -0.3210    0.6720   29.9041 C   0  0  0  0  0  0  0  0  0  0  0  0
    0.0959    1.9496   29.5305 C   0  0  0  0  0  0  0  0  0  0  0  0
   -0.2756    2.4724   28.2946 C   0  0  0  0  0  0  0  0  0  0  0  0
   -1.0341    1.7060   27.4162 C   0  0  0  0  0  0  0  0  0  0  0  0
   -1.4128    0.4124   27.7700 C   0  0  0  0  0  0  0  0  0  0  0  0
    1.3172   -7.1081   29.3905 H   0  0  0  0  0  0  0  0  0  0  0  0
    0.3704   -5.6344   29.4954 H   0  0  0  0  0  0  0  0  0  0  0  0
    1.6904   -5.9303   30.6371 H   0  0  0  0  0  0  0  0  0  0  0  0
   -1.5616   -7.8172   33.7402 H   0  0  0  0  0  0  0  0  0  0  0  0
    0.3569   -6.2163   34.1628 H   0  0  0  0  0  0  0  0  0  0  0  0
    1.4884   -5.8848   32.8563 H   0  0  0  0  0  0  0  0  0  0  0  0
   -1.2228   -4.5233   33.3153 H   0  0  0  0  0  0  0  0  0  0  0  0
    0.3400   -3.8095   33.7121 H   0  0  0  0  0  0  0  0  0  0  0  0
   -0.4503   -4.5944   31.0088 H   0  0  0  0  0  0  0  0  0  0  0  0
   -2.6808   -3.0139   30.7963 H   0  0  0  0  0  0  0  0  0  0  0  0
    0.2500   -2.0033   32.5101 H   0  0  0  0  0  0  0  0  0  0  0  0
    1.1785   -1.7044   29.8662 H   0  0  0  0  0  0  0  0  0  0  0  0
    0.5349   -2.2471   28.2995 H   0  0  0  0  0  0  0  0  0  0  0  0
    1.0896   -3.4169   29.4536 H   0  0  0  0  0  0  0  0  0  0  0  0
   -2.4144   -1.1856   30.1825 H   0  0  0  0  0  0  0  0  0  0  0  0
   -2.1986   -1.8695   28.5868 H   0  0  0  0  0  0  0  0  0  0  0  0
   -0.0678    0.3089   30.8948 H   0  0  0  0  0  0  0  0  0  0  0  0
    0.6776    2.5566   30.2191 H   0  0  0  0  0  0  0  0  0  0  0  0
    0.0113    3.4853   28.0236 H   0  0  0  0  0  0  0  0  0  0  0  0
   -1.3441    2.1218   26.4618 H   0  0  0  0  0  0  0  0  0  0  0  0
   -2.0031   -0.1735   27.0661 H   0  0  0  0  0  0  0  0  0  0  0  0
  1  2  1  0
  2  3  2  0
  3  4  1  0
  4  5  2  0
  5  6  1  0
  6  7  1  0
  7  8  1  0
  8  9  1  0
  9 10  1  0
 10 11  1  0
 10 12  1  0
 10 13  1  0
 13 14  1  0
 13 15  1  0
 15 16  1  0
 16 17  2  0
 17 18  1  0
 18 19  2  0
 19 20  1  0
 20 21  2  0
  6  2  1  0
 21 16  1  0
  1 22  1  0
  1 23  1  0
  1 24  1  0
  5 25  1  0
  7 26  1  0
  7 27  1  0
  8 28  1  0
  8 29  1  0
  9 30  1  0
 11 31  1  0
 12 32  1  0
 14 33  1  0
 14 34  1  0
 14 35  1  0
 15 36  1  0
 15 37  1  0
 17 38  1  0
 18 39  1  0
 19 40  1  0
 20 41  1  0
 21 42  1  0
M  END
>  <Energy>  (859) 
-205.04946779648421

>  <compound_id>  (859) 
3774

>  <target_id>  (859) 
1

>  <reference_id>  (859) 
130

>  <inspiration_ids>  (859) 
[130, 132]

>  <energy_score>  (859) 
-26.51006585505033

>  <distance_score>  (859) 
0.8092559238443512

>  <path>  (859) 
/opt/xchem-fragalysis-2/maxwin/BulkDock/SCRATCH/505734/C3774-P130/C3774-P130.minimised.mol

>  <scratch_subdir>  (859) 
/opt/xchem-fragalysis-2/maxwin/BulkDock/SCRATCH/505734/C3774-P130

>  <fragmenstein_runtime>  (859) 
3.4214258193969727

>  <fragmenstein_outcome>  (859) 
acceptable

>  <fragmenstein_mode>  (859) 
expansion

>  <fragmenstein_error>  (859) 


$$$$
C3774-P132
     RDKit          3D

 42 43  0  0  0  0  0  0  0  0999 V2000
    0.9025   -6.4615   30.1573 C   0  0  0  0  0  0  0  0  0  0  0  0
   -0.0909   -7.1295   31.0194 C   0  0  0  0  0  0  0  0  0  0  0  0
   -0.9763   -8.0210   30.6290 N   0  0  0  0  0  0  0  0  0  0  0  0
   -1.6999   -8.4028   31.7259 N   0  0  0  0  0  0  0  0  0  0  0  0
   -1.2518   -7.7315   32.7611 C   0  0  0  0  0  0  0  0  0  0  0  0
   -0.2674   -6.8859   32.3571 N   0  0  0  0  0  0  0  0  0  0  0  0
    0.4181   -5.9142   33.1824 C   0  0  0  0  0  0  0  0  0  0  0  0
   -0.1570   -4.4923   33.0468 C   0  0  0  0  0  0  0  0  0  0  0  0
    0.0264   -3.9457   31.6928 N   0  0  0  0  0  0  0  0  0  0  0  0
   -0.8001   -2.8252   31.3613 C   0  0  0  0  0  0  0  0  0  0  0  0
   -2.1149   -3.2397   31.6022 O   0  0  0  0  0  0  0  0  0  0  0  0
   -0.4654   -1.7380   32.1541 O   0  0  0  0  0  0  0  0  0  0  0  0
   -0.6385   -2.5489   29.9609 N   0  0  0  0  0  0  0  0  0  0  0  0
    0.7205   -2.4971   29.4394 C   0  0  0  0  0  0  0  0  0  0  0  0
   -1.4728   -1.4451   29.4573 C   0  0  0  0  0  0  0  0  0  0  0  0
   -0.8734   -0.1211   29.0454 C   0  0  0  0  0  0  0  0  0  0  0  0
   -0.1185    0.6587   29.9277 C   0  0  0  0  0  0  0  0  0  0  0  0
    0.2969    1.9392   29.5622 C   0  0  0  0  0  0  0  0  0  0  0  0
   -0.0826    2.4747   28.3337 C   0  0  0  0  0  0  0  0  0  0  0  0
   -0.8434    1.7163   27.4515 C   0  0  0  0  0  0  0  0  0  0  0  0
   -1.2156    0.4186   27.7951 C   0  0  0  0  0  0  0  0  0  0  0  0
    0.4274   -5.6896   29.5513 H   0  0  0  0  0  0  0  0  0  0  0  0
    1.7216   -6.0036   30.7168 H   0  0  0  0  0  0  0  0  0  0  0  0
    1.3469   -7.1844   29.4728 H   0  0  0  0  0  0  0  0  0  0  0  0
   -1.6090   -7.8211   33.7786 H   0  0  0  0  0  0  0  0  0  0  0  0
    0.3248   -6.2469   34.2232 H   0  0  0  0  0  0  0  0  0  0  0  0
    1.4846   -5.9430   32.9351 H   0  0  0  0  0  0  0  0  0  0  0  0
   -1.2123   -4.5319   33.3300 H   0  0  0  0  0  0  0  0  0  0  0  0
    0.3521   -3.8463   33.7706 H   0  0  0  0  0  0  0  0  0  0  0  0
   -0.3823   -4.6132   31.0459 H   0  0  0  0  0  0  0  0  0  0  0  0
   -2.5601   -2.9990   30.7808 H   0  0  0  0  0  0  0  0  0  0  0  0
    0.3496   -2.0444   32.5733 H   0  0  0  0  0  0  0  0  0  0  0  0
    1.3404   -1.7536   29.9511 H   0  0  0  0  0  0  0  0  0  0  0  0
    0.7257   -2.2755   28.3671 H   0  0  0  0  0  0  0  0  0  0  0  0
    1.2278   -3.4628   29.5282 H   0  0  0  0  0  0  0  0  0  0  0  0
   -2.2298   -1.1612   30.1956 H   0  0  0  0  0  0  0  0  0  0  0  0
   -2.0130   -1.8590   28.5975 H   0  0  0  0  0  0  0  0  0  0  0  0
    0.1355    0.2877   30.9154 H   0  0  0  0  0  0  0  0  0  0  0  0
    0.8822    2.5401   30.2533 H   0  0  0  0  0  0  0  0  0  0  0  0
    0.2018    3.4906   28.0714 H   0  0  0  0  0  0  0  0  0  0  0  0
   -1.1587    2.1401   26.5024 H   0  0  0  0  0  0  0  0  0  0  0  0
   -1.8059   -0.1620   27.0876 H   0  0  0  0  0  0  0  0  0  0  0  0
  1  2  1  0
  2  3  2  0
  3  4  1  0
  4  5  2  0
  5  6  1  0
  6  7  1  0
  7  8  1  0
  8  9  1  0
  9 10  1  0
 10 11  1  0
 10 12  1  0
 10 13  1  0
 13 14  1  0
 13 15  1  0
 15 16  1  0
 16 17  2  0
 17 18  1  0
 18 19  2  0
 19 20  1  0
 20 21  2  0
  6  2  1  0
 21 16  1  0
  1 22  1  0
  1 23  1  0
  1 24  1  0
  5 25  1  0
  7 26  1  0
  7 27  1  0
  8 28  1  0
  8 29  1  0
  9 30  1  0
 11 31  1  0
 12 32  1  0
 14 33  1  0
 14 34  1  0
 14 35  1  0
 15 36  1  0
 15 37  1  0
 17 38  1  0
 18 39  1  0
 19 40  1  0
 20 41  1  0
 21 42  1  0
M  END
>  <Energy>  (860) 
-204.82287559617521

>  <compound_id>  (860) 
3774

>  <target_id>  (860) 
1

>  <reference_id>  (860) 
132

>  <inspiration_ids>  (860) 
[130, 132]

>  <energy_score>  (860) 
-26.283473654742323

>  <distance_score>  (860) 
0.7992982791133807

>  <path>  (860) 
/opt/xchem-fragalysis-2/maxwin/BulkDock/SCRATCH/505734/C3774-P132/C3774-P132.minimised.mol

>  <scratch_subdir>  (860) 
/opt/xchem-fragalysis-2/maxwin/BulkDock/SCRATCH/505734/C3774-P132

>  <fragmenstein_runtime>  (860) 
2.8849596977233887

>  <fragmenstein_outcome>  (860) 
acceptable

>  <fragmenstein_mode>  (860) 
expansion

>  <fragmenstein_error>  (860) 


$$$$
C3777-P130
     RDKit          3D

 61 63  0  0  0  0  0  0  0  0999 V2000
   -0.7648   -4.1623   39.5480 C   0  0  0  0  0  0  0  0  0  0  0  0
   -0.5350   -3.9868   38.0591 C   0  0  0  0  0  0  0  0  0  0  0  0
   -0.9902   -2.6726   37.6889 O   0  0  0  0  0  0  0  0  0  0  0  0
   -0.2009   -1.9114   36.8954 C   0  0  0  0  0  0  0  0  0  0  0  0
    0.0605   -0.7425   37.1526 O   0  0  0  0  0  0  0  0  0  0  0  0
    0.2945   -2.5223   35.6430 C   0  0  0  0  0  0  0  0  0  0  0  0
   -0.3603   -3.4802   34.9693 C   0  0  0  0  0  0  0  0  0  0  0  0
    0.0171   -4.1106   33.6457 C   0  0  0  0  0  0  0  0  0  0  0  0
    1.1669   -3.4570   32.8706 C   0  0  0  0  0  0  0  0  0  0  0  0
    1.4616   -4.4738   31.7691 C   0  0  0  0  0  0  0  0  0  0  0  0
    0.4136   -4.4531   30.6421 C   0  0  0  0  0  0  0  0  0  0  0  0
   -0.2294   -5.4373   30.3920 O   0  0  0  0  0  0  0  0  0  0  0  0
    0.3348   -3.1348   30.1082 N   0  0  0  0  0  0  0  0  0  0  0  0
    1.2528   -3.0024   28.9203 C   0  0  0  0  0  0  0  0  0  0  0  0
   -0.6527   -2.5179   29.1399 C   0  0  0  0  0  0  0  0  0  0  0  0
   -0.6773   -0.9967   29.0378 C   0  0  0  0  0  0  0  0  0  0  0  0
   -0.0412   -0.1642   29.9704 C   0  0  0  0  0  0  0  0  0  0  0  0
   -0.0363    1.2210   29.7957 C   0  0  0  0  0  0  0  0  0  0  0  0
   -0.6990    1.7932   28.7108 C   0  0  0  0  0  0  0  0  0  0  0  0
   -1.3805    0.9829   27.8090 C   0  0  0  0  0  0  0  0  0  0  0  0
   -1.3700   -0.4026   27.9726 C   0  0  0  0  0  0  0  0  0  0  0  0
    1.4601   -5.7991   32.5429 C   0  0  0  0  0  0  0  0  0  0  0  0
    0.3691   -5.6576   33.6433 C   0  0  0  0  0  0  0  0  0  0  0  0
   -0.8532   -6.3778   33.2185 N   0  0  0  0  0  0  0  0  0  0  0  0
   -1.4480   -6.8934   34.4374 N   0  0  0  0  0  0  0  0  0  0  0  0
   -0.3051   -7.2224   35.2608 C   0  0  0  0  0  0  0  0  0  0  0  0
    0.6542   -6.1704   34.9910 N   0  0  0  0  0  0  0  0  0  0  0  0
    1.9957   -6.5611   35.3953 C   0  0  0  0  0  0  0  0  0  0  0  0
    2.9219   -5.3796   35.6513 C   0  0  0  0  0  0  0  0  0  0  0  0
   -1.8194   -4.0075   39.7979 H   0  0  0  0  0  0  0  0  0  0  0  0
   -0.1916   -3.4214   40.1150 H   0  0  0  0  0  0  0  0  0  0  0  0
   -0.4675   -5.1633   39.8728 H   0  0  0  0  0  0  0  0  0  0  0  0
    0.5279   -4.1239   37.8343 H   0  0  0  0  0  0  0  0  0  0  0  0
   -1.1241   -4.7286   37.5117 H   0  0  0  0  0  0  0  0  0  0  0  0
    1.1993   -2.0637   35.2638 H   0  0  0  0  0  0  0  0  0  0  0  0
   -1.3069   -3.8449   35.3639 H   0  0  0  0  0  0  0  0  0  0  0  0
   -0.8810   -3.9629   33.0237 H   0  0  0  0  0  0  0  0  0  0  0  0
    0.8839   -2.4686   32.4964 H   0  0  0  0  0  0  0  0  0  0  0  0
    2.0552   -3.3255   33.4972 H   0  0  0  0  0  0  0  0  0  0  0  0
    2.4460   -4.3042   31.3203 H   0  0  0  0  0  0  0  0  0  0  0  0
    1.4332   -1.9996   28.5135 H   0  0  0  0  0  0  0  0  0  0  0  0
    2.2469   -3.2818   29.3004 H   0  0  0  0  0  0  0  0  0  0  0  0
    1.0686   -3.7689   28.1540 H   0  0  0  0  0  0  0  0  0  0  0  0
   -0.7943   -3.0504   28.1871 H   0  0  0  0  0  0  0  0  0  0  0  0
   -1.6076   -2.7460   29.6422 H   0  0  0  0  0  0  0  0  0  0  0  0
    0.4773   -0.5889   30.8260 H   0  0  0  0  0  0  0  0  0  0  0  0
    0.4788    1.8582   30.5099 H   0  0  0  0  0  0  0  0  0  0  0  0
   -0.7096    2.8735   28.5830 H   0  0  0  0  0  0  0  0  0  0  0  0
   -1.9283    1.4273   26.9817 H   0  0  0  0  0  0  0  0  0  0  0  0
   -1.9049   -1.0206   27.2522 H   0  0  0  0  0  0  0  0  0  0  0  0
    2.4587   -5.9257   32.9673 H   0  0  0  0  0  0  0  0  0  0  0  0
    1.3065   -6.6689   31.8969 H   0  0  0  0  0  0  0  0  0  0  0  0
   -0.6162   -7.1385   32.5796 H   0  0  0  0  0  0  0  0  0  0  0  0
   -1.9174   -6.1060   34.8990 H   0  0  0  0  0  0  0  0  0  0  0  0
   -0.5799   -7.2565   36.3197 H   0  0  0  0  0  0  0  0  0  0  0  0
    0.0748   -8.2058   34.9757 H   0  0  0  0  0  0  0  0  0  0  0  0
    2.4480   -7.2673   34.6905 H   0  0  0  0  0  0  0  0  0  0  0  0
    1.9343   -7.0998   36.3511 H   0  0  0  0  0  0  0  0  0  0  0  0
    3.8733   -5.7381   36.0587 H   0  0  0  0  0  0  0  0  0  0  0  0
    2.4899   -4.6907   36.3836 H   0  0  0  0  0  0  0  0  0  0  0  0
    3.1496   -4.8189   34.7439 H   0  0  0  0  0  0  0  0  0  0  0  0
  1  2  1  0
  2  3  1  0
  3  4  1  0
  4  5  2  0
  4  6  1  0
  6  7  2  3
  7  8  1  0
  8  9  1  0
  9 10  1  0
 10 11  1  0
 11 12  2  0
 11 13  1  0
 13 14  1  0
 13 15  1  0
 15 16  1  0
 16 17  2  0
 17 18  1  0
 18 19  2  0
 19 20  1  0
 20 21  2  0
 10 22  1  0
 22 23  1  0
 23 24  1  0
 24 25  1  0
 25 26  1  0
 26 27  1  0
 27 28  1  0
 28 29  1  0
 23  8  1  0
 21 16  1  0
 27 23  1  0
  1 30  1  0
  1 31  1  0
  1 32  1  0
  2 33  1  0
  2 34  1  0
  6 35  1  0
  7 36  1  0
  8 37  1  0
  9 38  1  0
  9 39  1  0
 10 40  1  0
 14 41  1  0
 14 42  1  0
 14 43  1  0
 15 44  1  0
 15 45  1  0
 17 46  1  0
 18 47  1  0
 19 48  1  0
 20 49  1  0
 21 50  1  0
 22 51  1  0
 22 52  1  0
 24 53  1  0
 25 54  1  0
 26 55  1  0
 26 56  1  0
 28 57  1  0
 28 58  1  0
 29 59  1  0
 29 60  1  0
 29 61  1  0
M  END
>  <Energy>  (861) 
118.91740478313018

>  <compound_id>  (861) 
3777

>  <target_id>  (861) 
1

>  <reference_id>  (861) 
130

>  <inspiration_ids>  (861) 
[130, 136]

>  <energy_score>  (861) 
20.570106462249754

>  <distance_score>  (861) 
1.865733728016665

>  <path>  (861) 
/opt/xchem-fragalysis-2/maxwin/BulkDock/SCRATCH/505734/C3777-P130/C3777-P130.minimised.mol

>  <scratch_subdir>  (861) 
/opt/xchem-fragalysis-2/maxwin/BulkDock/SCRATCH/505734/C3777-P130

>  <fragmenstein_runtime>  (861) 
9.309558153152466

>  <fragmenstein_outcome>  (861) 
too moved

>  <fragmenstein_mode>  (861) 
expansion

>  <fragmenstein_error>  (861) 


$$$$
C3777-P136
     RDKit          3D

 61 63  0  0  0  0  0  0  0  0999 V2000
    0.1706   -8.0099   40.5548 C   0  0  0  0  0  0  0  0  0  0  0  0
    0.1913   -6.5706   40.0769 C   0  0  0  0  0  0  0  0  0  0  0  0
   -0.2866   -6.5330   38.7268 O   0  0  0  0  0  0  0  0  0  0  0  0
   -0.0168   -5.3765   38.0748 C   0  0  0  0  0  0  0  0  0  0  0  0
    0.5623   -4.4038   38.5303 O   0  0  0  0  0  0  0  0  0  0  0  0
   -0.4832   -5.5127   36.6777 C   0  0  0  0  0  0  0  0  0  0  0  0
    0.0134   -4.6913   35.7404 C   0  0  0  0  0  0  0  0  0  0  0  0
   -0.3086   -4.7503   34.2611 C   0  0  0  0  0  0  0  0  0  0  0  0
   -0.4746   -3.3214   33.7032 C   0  0  0  0  0  0  0  0  0  0  0  0
   -0.0895   -3.3859   32.2187 C   0  0  0  0  0  0  0  0  0  0  0  0
   -1.2295   -2.9373   31.3141 C   0  0  0  0  0  0  0  0  0  0  0  0
   -2.3370   -3.3864   31.4563 O   0  0  0  0  0  0  0  0  0  0  0  0
   -0.7347   -1.9588   30.4008 N   0  0  0  0  0  0  0  0  0  0  0  0
   -0.2411   -2.6253   29.1417 C   0  0  0  0  0  0  0  0  0  0  0  0
   -1.4552   -1.0955   29.4016 C   0  0  0  0  0  0  0  0  0  0  0  0
   -0.7564    0.1873   28.9904 C   0  0  0  0  0  0  0  0  0  0  0  0
    0.1802    0.8179   29.8212 C   0  0  0  0  0  0  0  0  0  0  0  0
    0.7199    2.0540   29.4640 C   0  0  0  0  0  0  0  0  0  0  0  0
    0.3181    2.6774   28.2840 C   0  0  0  0  0  0  0  0  0  0  0  0
   -0.6125    2.0607   27.4515 C   0  0  0  0  0  0  0  0  0  0  0  0
   -1.1424    0.8189   27.7985 C   0  0  0  0  0  0  0  0  0  0  0  0
    0.2684   -4.8495   31.9515 C   0  0  0  0  0  0  0  0  0  0  0  0
    0.7646   -5.3852   33.3055 C   0  0  0  0  0  0  0  0  0  0  0  0
    0.7387   -6.8488   33.2964 N   0  0  0  0  0  0  0  0  0  0  0  0
    1.6561   -7.2701   34.3388 N   0  0  0  0  0  0  0  0  0  0  0  0
    2.5843   -6.1574   34.5342 C   0  0  0  0  0  0  0  0  0  0  0  0
    2.1185   -5.0266   33.7394 N   0  0  0  0  0  0  0  0  0  0  0  0
    3.0661   -4.6097   32.7121 C   0  0  0  0  0  0  0  0  0  0  0  0
    4.3991   -4.1249   33.2805 C   0  0  0  0  0  0  0  0  0  0  0  0
    0.5322   -8.0836   41.5843 H   0  0  0  0  0  0  0  0  0  0  0  0
   -0.8414   -8.4230   40.5085 H   0  0  0  0  0  0  0  0  0  0  0  0
    0.8006   -8.6352   39.9138 H   0  0  0  0  0  0  0  0  0  0  0  0
    1.2171   -6.1885   40.1361 H   0  0  0  0  0  0  0  0  0  0  0  0
   -0.4651   -5.9576   40.7036 H   0  0  0  0  0  0  0  0  0  0  0  0
   -1.1727   -6.3129   36.4447 H   0  0  0  0  0  0  0  0  0  0  0  0
    0.7400   -3.9345   36.0385 H   0  0  0  0  0  0  0  0  0  0  0  0
   -1.2543   -5.2909   34.1208 H   0  0  0  0  0  0  0  0  0  0  0  0
   -1.4904   -2.9489   33.8735 H   0  0  0  0  0  0  0  0  0  0  0  0
    0.1994   -2.6147   34.2055 H   0  0  0  0  0  0  0  0  0  0  0  0
    0.7790   -2.7370   32.0593 H   0  0  0  0  0  0  0  0  0  0  0  0
    0.5303   -3.3331   29.4768 H   0  0  0  0  0  0  0  0  0  0  0  0
    0.3085   -1.9931   28.4297 H   0  0  0  0  0  0  0  0  0  0  0  0
   -0.9922   -3.2811   28.6781 H   0  0  0  0  0  0  0  0  0  0  0  0
   -2.0211   -1.5878   28.5909 H   0  0  0  0  0  0  0  0  0  0  0  0
   -2.2779   -0.7128   30.0260 H   0  0  0  0  0  0  0  0  0  0  0  0
    0.4771    0.3622   30.7625 H   0  0  0  0  0  0  0  0  0  0  0  0
    1.4351    2.5458   30.1179 H   0  0  0  0  0  0  0  0  0  0  0  0
    0.7156    3.6546   28.0224 H   0  0  0  0  0  0  0  0  0  0  0  0
   -0.9451    2.5586   26.5442 H   0  0  0  0  0  0  0  0  0  0  0  0
   -1.8799    0.3579   27.1429 H   0  0  0  0  0  0  0  0  0  0  0  0
    0.9926   -4.9610   31.1381 H   0  0  0  0  0  0  0  0  0  0  0  0
   -0.6227   -5.4069   31.6281 H   0  0  0  0  0  0  0  0  0  0  0  0
    1.0825   -7.1668   32.3888 H   0  0  0  0  0  0  0  0  0  0  0  0
    1.1324   -7.3876   35.2152 H   0  0  0  0  0  0  0  0  0  0  0  0
    2.6294   -5.8815   35.5937 H   0  0  0  0  0  0  0  0  0  0  0  0
    3.5842   -6.5054   34.2626 H   0  0  0  0  0  0  0  0  0  0  0  0
    2.6680   -3.7564   32.1568 H   0  0  0  0  0  0  0  0  0  0  0  0
    3.2330   -5.4058   31.9836 H   0  0  0  0  0  0  0  0  0  0  0  0
    5.0140   -3.7070   32.4762 H   0  0  0  0  0  0  0  0  0  0  0  0
    4.9752   -4.9301   33.7444 H   0  0  0  0  0  0  0  0  0  0  0  0
    4.2442   -3.3368   34.0251 H   0  0  0  0  0  0  0  0  0  0  0  0
  1  2  1  0
  2  3  1  0
  3  4  1  0
  4  5  2  0
  4  6  1  0
  6  7  2  3
  7  8  1  0
  8  9  1  0
  9 10  1  0
 10 11  1  0
 11 12  2  0
 11 13  1  0
 13 14  1  0
 13 15  1  0
 15 16  1  0
 16 17  2  0
 17 18  1  0
 18 19  2  0
 19 20  1  0
 20 21  2  0
 10 22  1  0
 22 23  1  0
 23 24  1  0
 24 25  1  0
 25 26  1  0
 26 27  1  0
 27 28  1  0
 28 29  1  0
 23  8  1  0
 21 16  1  0
 27 23  1  0
  1 30  1  0
  1 31  1  0
  1 32  1  0
  2 33  1  0
  2 34  1  0
  6 35  1  0
  7 36  1  0
  8 37  1  0
  9 38  1  0
  9 39  1  0
 10 40  1  0
 14 41  1  0
 14 42  1  0
 14 43  1  0
 15 44  1  0
 15 45  1  0
 17 46  1  0
 18 47  1  0
 19 48  1  0
 20 49  1  0
 21 50  1  0
 22 51  1  0
 22 52  1  0
 24 53  1  0
 25 54  1  0
 26 55  1  0
 26 56  1  0
 28 57  1  0
 28 58  1  0
 29 59  1  0
 29 60  1  0
 29 61  1  0
M  END
>  <Energy>  (862) 
104.6712904192343

>  <compound_id>  (862) 
3777

>  <target_id>  (862) 
1

>  <reference_id>  (862) 
136

>  <inspiration_ids>  (862) 
[130, 136]

>  <energy_score>  (862) 
6.323992098352306

>  <distance_score>  (862) 
2.5034379367930293

>  <path>  (862) 
/opt/xchem-fragalysis-2/maxwin/BulkDock/SCRATCH/505734/C3777-P136/C3777-P136.minimised.mol

>  <scratch_subdir>  (862) 
/opt/xchem-fragalysis-2/maxwin/BulkDock/SCRATCH/505734/C3777-P136

>  <fragmenstein_runtime>  (862) 
8.431892395019531

>  <fragmenstein_outcome>  (862) 
too moved

>  <fragmenstein_mode>  (862) 
expansion

>  <fragmenstein_error>  (862) 


$$$$
C3779-P130
     RDKit          3D

 45 48  0  0  0  0  0  0  0  0999 V2000
    1.8345   -5.1105   30.2449 C   0  0  0  0  0  0  0  0  0  0  0  0
    0.7314   -4.9068   31.2560 C   0  0  0  0  0  0  0  0  0  0  0  0
    0.5126   -3.6417   31.6561 C   0  0  0  0  0  0  0  0  0  0  0  0
   -0.6530   -3.1132   32.3213 C   0  0  0  0  0  0  0  0  0  0  0  0
   -1.6768   -2.3007   31.5200 C   0  0  0  0  0  0  0  0  0  0  0  0
   -2.8313   -2.3651   31.8556 O   0  0  0  0  0  0  0  0  0  0  0  0
   -1.0471   -1.5030   30.5271 N   0  0  0  0  0  0  0  0  0  0  0  0
   -1.0196   -2.2419   29.1983 C   0  0  0  0  0  0  0  0  0  0  0  0
   -1.5943   -0.4077   29.6566 C   0  0  0  0  0  0  0  0  0  0  0  0
   -0.6039    0.6104   29.1374 C   0  0  0  0  0  0  0  0  0  0  0  0
    0.5545    0.9430   29.8493 C   0  0  0  0  0  0  0  0  0  0  0  0
    1.3923    1.9585   29.3896 C   0  0  0  0  0  0  0  0  0  0  0  0
    1.0745    2.6554   28.2244 C   0  0  0  0  0  0  0  0  0  0  0  0
   -0.0790    2.3370   27.5126 C   0  0  0  0  0  0  0  0  0  0  0  0
   -0.9143    1.3183   27.9651 C   0  0  0  0  0  0  0  0  0  0  0  0
   -0.9802   -3.3146   33.6072 C   0  0  0  0  0  0  0  0  0  0  0  0
   -0.4227   -4.3198   34.4334 C   0  0  0  0  0  0  0  0  0  0  0  0
   -0.2880   -4.0565   35.7771 N   0  0  0  0  0  0  0  0  0  0  0  0
   -0.1073   -5.2313   36.4643 C   0  0  0  0  0  0  0  0  0  0  0  0
   -0.1236   -6.2610   35.5509 C   0  0  0  0  0  0  0  0  0  0  0  0
   -0.2568   -5.6797   34.2653 C   0  0  0  0  0  0  0  0  0  0  0  0
   -0.3714   -6.4626   32.9310 C   0  0  0  0  0  0  0  0  0  0  0  0
   -0.7353   -7.7300   32.8925 N   0  0  0  0  0  0  0  0  0  0  0  0
   -0.7288   -8.1453   31.5939 N   0  0  0  0  0  0  0  0  0  0  0  0
   -0.2383   -7.1622   30.8885 C   0  0  0  0  0  0  0  0  0  0  0  0
    0.0156   -6.0506   31.6620 N   0  0  0  0  0  0  0  0  0  0  0  0
    2.3407   -4.1765   29.9756 H   0  0  0  0  0  0  0  0  0  0  0  0
    2.5954   -5.7719   30.6578 H   0  0  0  0  0  0  0  0  0  0  0  0
    1.4545   -5.5385   29.3143 H   0  0  0  0  0  0  0  0  0  0  0  0
    1.1592   -2.8462   31.2806 H   0  0  0  0  0  0  0  0  0  0  0  0
   -2.0202   -2.5387   28.8523 H   0  0  0  0  0  0  0  0  0  0  0  0
   -0.5473   -3.2128   29.3789 H   0  0  0  0  0  0  0  0  0  0  0  0
   -0.3826   -1.7965   28.4209 H   0  0  0  0  0  0  0  0  0  0  0  0
   -2.3740   -0.6614   28.9237 H   0  0  0  0  0  0  0  0  0  0  0  0
   -2.1886    0.1695   30.3845 H   0  0  0  0  0  0  0  0  0  0  0  0
    0.8001    0.4279   30.7746 H   0  0  0  0  0  0  0  0  0  0  0  0
    2.2863    2.2208   29.9492 H   0  0  0  0  0  0  0  0  0  0  0  0
    1.7190    3.4600   27.8798 H   0  0  0  0  0  0  0  0  0  0  0  0
   -0.3399    2.8971   26.6184 H   0  0  0  0  0  0  0  0  0  0  0  0
   -1.8249    1.0985   27.4098 H   0  0  0  0  0  0  0  0  0  0  0  0
   -1.8570   -2.8078   34.0130 H   0  0  0  0  0  0  0  0  0  0  0  0
   -0.4077   -3.1494   36.2083 H   0  0  0  0  0  0  0  0  0  0  0  0
   -0.0209   -5.2335   37.5428 H   0  0  0  0  0  0  0  0  0  0  0  0
   -0.0402   -7.3172   35.7765 H   0  0  0  0  0  0  0  0  0  0  0  0
   -0.0521   -7.1927   29.8320 H   0  0  0  0  0  0  0  0  0  0  0  0
  1  2  1  0
  2  3  2  3
  3  4  1  0
  4  5  1  0
  5  6  2  0
  5  7  1  0
  7  8  1  0
  7  9  1  0
  9 10  1  0
 10 11  2  0
 11 12  1  0
 12 13  2  0
 13 14  1  0
 14 15  2  0
  4 16  2  3
 16 17  1  0
 17 18  1  0
 18 19  1  0
 19 20  2  0
 20 21  1  0
 21 22  1  0
 22 23  2  0
 23 24  1  0
 24 25  2  0
 25 26  1  0
 26  2  1  0
 15 10  1  0
 21 17  2  0
 26 22  1  0
  1 27  1  0
  1 28  1  0
  1 29  1  0
  3 30  1  0
  8 31  1  0
  8 32  1  0
  8 33  1  0
  9 34  1  0
  9 35  1  0
 11 36  1  0
 12 37  1  0
 13 38  1  0
 14 39  1  0
 15 40  1  0
 16 41  1  0
 18 42  1  0
 19 43  1  0
 20 44  1  0
 25 45  1  0
M  END
>  <Energy>  (863) 
161.34275744763869

>  <compound_id>  (863) 
3779

>  <target_id>  (863) 
1

>  <reference_id>  (863) 
130

>  <inspiration_ids>  (863) 
[130, 147]

>  <energy_score>  (863) 
18.829539400343606

>  <distance_score>  (863) 
1.6314142247581296

>  <path>  (863) 
/opt/xchem-fragalysis-2/maxwin/BulkDock/SCRATCH/505734/C3779-P130/C3779-P130.minimised.mol

>  <scratch_subdir>  (863) 
/opt/xchem-fragalysis-2/maxwin/BulkDock/SCRATCH/505734/C3779-P130

>  <fragmenstein_runtime>  (863) 
4.599724531173706

>  <fragmenstein_outcome>  (863) 
too moved

>  <fragmenstein_mode>  (863) 
expansion

>  <fragmenstein_error>  (863) 


$$$$
C3779-P147
     RDKit          3D

 45 48  0  0  0  0  0  0  0  0999 V2000
    1.5980   -4.5439   30.5805 C   0  0  0  0  0  0  0  0  0  0  0  0
    0.6703   -4.6358   31.7812 C   0  0  0  0  0  0  0  0  0  0  0  0
    0.6596   -3.5605   32.5922 C   0  0  0  0  0  0  0  0  0  0  0  0
   -0.2934   -3.1178   33.5938 C   0  0  0  0  0  0  0  0  0  0  0  0
   -0.9652   -1.7401   33.4022 C   0  0  0  0  0  0  0  0  0  0  0  0
   -1.5145   -1.2047   34.3276 O   0  0  0  0  0  0  0  0  0  0  0  0
   -0.8132   -1.3228   32.0504 N   0  0  0  0  0  0  0  0  0  0  0  0
   -1.9527   -1.8430   31.2162 C   0  0  0  0  0  0  0  0  0  0  0  0
   -1.1898   -0.0358   31.3733 C   0  0  0  0  0  0  0  0  0  0  0  0
   -0.3609    0.3216   30.1569 C   0  0  0  0  0  0  0  0  0  0  0  0
    1.0372    0.2528   30.2047 C   0  0  0  0  0  0  0  0  0  0  0  0
    1.8016    0.6898   29.1241 C   0  0  0  0  0  0  0  0  0  0  0  0
    1.1774    1.1985   27.9875 C   0  0  0  0  0  0  0  0  0  0  0  0
   -0.2116    1.2557   27.9210 C   0  0  0  0  0  0  0  0  0  0  0  0
   -0.9764    0.8185   29.0000 C   0  0  0  0  0  0  0  0  0  0  0  0
   -0.6303   -3.7282   34.7379 C   0  0  0  0  0  0  0  0  0  0  0  0
   -0.2846   -5.0413   35.1092 C   0  0  0  0  0  0  0  0  0  0  0  0
   -0.0801   -5.2725   36.4522 N   0  0  0  0  0  0  0  0  0  0  0  0
   -0.0704   -6.6197   36.6944 C   0  0  0  0  0  0  0  0  0  0  0  0
   -0.2780   -7.2547   35.4932 C   0  0  0  0  0  0  0  0  0  0  0  0
   -0.3207   -6.2648   34.4807 C   0  0  0  0  0  0  0  0  0  0  0  0
   -0.5027   -6.5675   32.9705 C   0  0  0  0  0  0  0  0  0  0  0  0
   -0.9548   -7.7401   32.5597 N   0  0  0  0  0  0  0  0  0  0  0  0
   -0.9486   -7.7651   31.1982 N   0  0  0  0  0  0  0  0  0  0  0  0
   -0.4079   -6.6414   30.8102 C   0  0  0  0  0  0  0  0  0  0  0  0
   -0.0938   -5.8167   31.8763 N   0  0  0  0  0  0  0  0  0  0  0  0
    1.0247   -4.3341   29.6708 H   0  0  0  0  0  0  0  0  0  0  0  0
    2.3477   -3.7514   30.6848 H   0  0  0  0  0  0  0  0  0  0  0  0
    2.1499   -5.4770   30.4393 H   0  0  0  0  0  0  0  0  0  0  0  0
    1.3545   -2.7490   32.3572 H   0  0  0  0  0  0  0  0  0  0  0  0
   -2.9411   -1.5542   31.6066 H   0  0  0  0  0  0  0  0  0  0  0  0
   -1.9533   -2.9336   31.3609 H   0  0  0  0  0  0  0  0  0  0  0  0
   -1.8407   -1.7443   30.1271 H   0  0  0  0  0  0  0  0  0  0  0  0
   -2.2544    0.2490   31.3011 H   0  0  0  0  0  0  0  0  0  0  0  0
   -0.8649    0.7066   32.1229 H   0  0  0  0  0  0  0  0  0  0  0  0
    1.5380   -0.1138   31.0977 H   0  0  0  0  0  0  0  0  0  0  0  0
    2.8864    0.6505   29.1742 H   0  0  0  0  0  0  0  0  0  0  0  0
    1.7772    1.5565   27.1560 H   0  0  0  0  0  0  0  0  0  0  0  0
   -0.7035    1.6558   27.0382 H   0  0  0  0  0  0  0  0  0  0  0  0
   -2.0561    0.9067   28.9364 H   0  0  0  0  0  0  0  0  0  0  0  0
   -1.3173   -3.2231   35.4188 H   0  0  0  0  0  0  0  0  0  0  0  0
   -0.0238   -4.5567   37.1660 H   0  0  0  0  0  0  0  0  0  0  0  0
    0.0513   -7.0047   37.6981 H   0  0  0  0  0  0  0  0  0  0  0  0
   -0.3623   -8.3212   35.3438 H   0  0  0  0  0  0  0  0  0  0  0  0
   -0.2310   -6.3571   29.7860 H   0  0  0  0  0  0  0  0  0  0  0  0
  1  2  1  0
  2  3  2  3
  3  4  1  0
  4  5  1  0
  5  6  2  0
  5  7  1  0
  7  8  1  0
  7  9  1  0
  9 10  1  0
 10 11  2  0
 11 12  1  0
 12 13  2  0
 13 14  1  0
 14 15  2  0
  4 16  2  3
 16 17  1  0
 17 18  1  0
 18 19  1  0
 19 20  2  0
 20 21  1  0
 21 22  1  0
 22 23  2  0
 23 24  1  0
 24 25  2  0
 25 26  1  0
 26  2  1  0
 15 10  1  0
 21 17  2  0
 26 22  1  0
  1 27  1  0
  1 28  1  0
  1 29  1  0
  3 30  1  0
  8 31  1  0
  8 32  1  0
  8 33  1  0
  9 34  1  0
  9 35  1  0
 11 36  1  0
 12 37  1  0
 13 38  1  0
 14 39  1  0
 15 40  1  0
 16 41  1  0
 18 42  1  0
 19 43  1  0
 20 44  1  0
 25 45  1  0
M  END
>  <Energy>  (864) 
153.2149869355024

>  <compound_id>  (864) 
3779

>  <target_id>  (864) 
1

>  <reference_id>  (864) 
147

>  <inspiration_ids>  (864) 
[130, 147]

>  <energy_score>  (864) 
10.701768888204583

>  <distance_score>  (864) 
2.299147397924583

>  <path>  (864) 
/opt/xchem-fragalysis-2/maxwin/BulkDock/SCRATCH/505734/C3779-P147/C3779-P147.minimised.mol

>  <scratch_subdir>  (864) 
/opt/xchem-fragalysis-2/maxwin/BulkDock/SCRATCH/505734/C3779-P147

>  <fragmenstein_runtime>  (864) 
5.780864715576172

>  <fragmenstein_outcome>  (864) 
too moved

>  <fragmenstein_mode>  (864) 
expansion

>  <fragmenstein_error>  (864) 


$$$$
C3743-P130
     RDKit          3D

 68 71  0  0  0  0  0  0  0  0999 V2000
    0.4351   -7.3115   37.7958 C   0  0  0  0  0  0  0  0  0  0  0  0
   -0.0741   -5.9090   37.9701 C   0  0  0  0  0  0  0  0  0  0  0  0
   -0.0061   -5.3202   39.2285 C   0  0  0  0  0  0  0  0  0  0  0  0
   -0.3587   -3.9859   39.3536 C   0  0  0  0  0  0  0  0  0  0  0  0
   -0.7472   -3.2764   38.2220 C   0  0  0  0  0  0  0  0  0  0  0  0
   -0.8144   -3.9341   37.0015 C   0  0  0  0  0  0  0  0  0  0  0  0
   -1.2088   -3.2630   35.8549 N   0  0  0  0  0  0  0  0  0  0  0  0
   -1.3406   -1.8457   35.5807 C   0  0  0  0  0  0  0  0  0  0  0  0
   -1.0668   -0.8912   36.2511 O   0  0  0  0  0  0  0  0  0  0  0  0
   -1.9718   -1.6605   34.1700 C   0  0  0  0  0  0  0  0  0  0  0  0
   -3.5035   -1.7786   34.3502 C   0  0  0  0  0  0  0  0  0  0  0  0
   -4.0471   -0.3544   34.3835 C   0  0  0  0  0  0  0  0  0  0  0  0
   -2.8361    0.5422   34.1916 C   0  0  0  0  0  0  0  0  0  0  0  0
   -1.8007   -0.3011   33.4041 C   0  0  0  0  0  0  0  0  0  0  0  0
   -0.4274    0.3787   33.5154 C   0  0  0  0  0  0  0  0  0  0  0  0
    0.5618   -0.0461   32.4502 C   0  0  0  0  0  0  0  0  0  0  0  0
    0.0565    0.3951   31.0929 C   0  0  0  0  0  0  0  0  0  0  0  0
   -1.2889   -0.2324   30.7240 C   0  0  0  0  0  0  0  0  0  0  0  0
   -1.0899   -1.4549   29.7579 C   0  0  0  0  0  0  0  0  0  0  0  0
   -0.2943   -2.5258   30.4754 N   0  0  0  0  0  0  0  0  0  0  0  0
   -0.1452   -3.0551   29.0687 C   0  0  0  0  0  0  0  0  0  0  0  0
   -0.7302   -3.5910   31.3653 C   0  0  0  0  0  0  0  0  0  0  0  0
   -1.8131   -3.9305   31.6710 O   0  0  0  0  0  0  0  0  0  0  0  0
    0.5681   -4.0447   31.8349 N   0  0  0  0  0  0  0  0  0  0  0  0
    0.9225   -4.9763   32.8819 C   0  0  0  0  0  0  0  0  0  0  0  0
   -0.1242   -6.0464   33.1918 C   0  0  0  0  0  0  0  0  0  0  0  0
   -0.4632   -6.9534   32.1202 N   0  0  0  0  0  0  0  0  0  0  0  0
   -1.3178   -8.0053   32.2390 C   0  0  0  0  0  0  0  0  0  0  0  0
   -1.4243   -8.6168   31.0835 N   0  0  0  0  0  0  0  0  0  0  0  0
   -0.6322   -7.9519   30.1841 N   0  0  0  0  0  0  0  0  0  0  0  0
   -0.0591   -6.9587   30.8235 C   0  0  0  0  0  0  0  0  0  0  0  0
   -2.2585   -0.4997   31.9029 C   0  0  0  0  0  0  0  0  0  0  0  0
   -0.4989   -5.2435   36.8572 N   0  0  0  0  0  0  0  0  0  0  0  0
    1.5263   -7.2993   37.7132 H   0  0  0  0  0  0  0  0  0  0  0  0
    0.1550   -7.9427   38.6444 H   0  0  0  0  0  0  0  0  0  0  0  0
    0.0263   -7.7566   36.8831 H   0  0  0  0  0  0  0  0  0  0  0  0
    0.3336   -5.8812   40.0936 H   0  0  0  0  0  0  0  0  0  0  0  0
   -0.3165   -3.4919   40.3201 H   0  0  0  0  0  0  0  0  0  0  0  0
   -1.0114   -2.2286   38.3169 H   0  0  0  0  0  0  0  0  0  0  0  0
   -1.4631   -3.7859   35.0260 H   0  0  0  0  0  0  0  0  0  0  0  0
   -1.5826   -2.4651   33.5497 H   0  0  0  0  0  0  0  0  0  0  0  0
   -3.7926   -2.3066   35.2637 H   0  0  0  0  0  0  0  0  0  0  0  0
   -3.9516   -2.3122   33.5045 H   0  0  0  0  0  0  0  0  0  0  0  0
   -4.5556   -0.1350   35.3279 H   0  0  0  0  0  0  0  0  0  0  0  0
   -4.7760   -0.2094   33.5781 H   0  0  0  0  0  0  0  0  0  0  0  0
   -2.4422    0.8318   35.1734 H   0  0  0  0  0  0  0  0  0  0  0  0
   -3.1001    1.4752   33.7031 H   0  0  0  0  0  0  0  0  0  0  0  0
    0.0316    0.2128   34.4927 H   0  0  0  0  0  0  0  0  0  0  0  0
   -0.5587    1.4674   33.4429 H   0  0  0  0  0  0  0  0  0  0  0  0
    1.5280    0.4346   32.6439 H   0  0  0  0  0  0  0  0  0  0  0  0
    0.7332   -1.1250   32.4930 H   0  0  0  0  0  0  0  0  0  0  0  0
   -0.0563    1.4874   31.1005 H   0  0  0  0  0  0  0  0  0  0  0  0
    0.8144    0.1844   30.3290 H   0  0  0  0  0  0  0  0  0  0  0  0
   -1.7983    0.5083   30.0884 H   0  0  0  0  0  0  0  0  0  0  0  0
   -0.6100   -0.9921   28.8783 H   0  0  0  0  0  0  0  0  0  0  0  0
   -2.0928   -1.8271   29.5074 H   0  0  0  0  0  0  0  0  0  0  0  0
   -1.0842   -3.3561   28.5847 H   0  0  0  0  0  0  0  0  0  0  0  0
    0.3996   -4.0060   29.1632 H   0  0  0  0  0  0  0  0  0  0  0  0
    0.5270   -2.4503   28.4432 H   0  0  0  0  0  0  0  0  0  0  0  0
    1.2916   -3.4727   31.4135 H   0  0  0  0  0  0  0  0  0  0  0  0
    1.8722   -5.4373   32.5894 H   0  0  0  0  0  0  0  0  0  0  0  0
    1.1075   -4.3787   33.7808 H   0  0  0  0  0  0  0  0  0  0  0  0
   -1.0601   -5.5846   33.5214 H   0  0  0  0  0  0  0  0  0  0  0  0
    0.2437   -6.6686   34.0169 H   0  0  0  0  0  0  0  0  0  0  0  0
   -1.8195   -8.2810   33.1553 H   0  0  0  0  0  0  0  0  0  0  0  0
    0.6250   -6.2489   30.3846 H   0  0  0  0  0  0  0  0  0  0  0  0
   -3.1187    0.1509   31.7305 H   0  0  0  0  0  0  0  0  0  0  0  0
   -2.6885   -1.4979   31.7722 H   0  0  0  0  0  0  0  0  0  0  0  0
  1  2  1  0
  2  3  2  0
  3  4  1  0
  4  5  2  0
  5  6  1  0
  6  7  1  0
  7  8  1  0
  8  9  2  0
  8 10  1  0
 10 11  1  0
 11 12  1  0
 12 13  1  0
 13 14  1  0
 14 15  1  0
 15 16  1  0
 16 17  1  0
 17 18  1  0
 18 19  1  0
 19 20  1  0
 20 21  1  0
 20 22  1  0
 22 23  2  0
 22 24  1  0
 24 25  1  0
 25 26  1  0
 26 27  1  0
 27 28  1  0
 28 29  2  0
 29 30  1  0
 30 31  2  0
 18 32  1  0
  6 33  2  0
 33  2  1  0
 14 10  1  0
 31 27  1  0
 32 14  1  0
  1 34  1  0
  1 35  1  0
  1 36  1  0
  3 37  1  0
  4 38  1  0
  5 39  1  0
  7 40  1  0
 10 41  1  0
 11 42  1  0
 11 43  1  0
 12 44  1  0
 12 45  1  0
 13 46  1  0
 13 47  1  0
 15 48  1  0
 15 49  1  0
 16 50  1  0
 16 51  1  0
 17 52  1  0
 17 53  1  0
 18 54  1  0
 19 55  1  0
 19 56  1  0
 21 57  1  0
 21 58  1  0
 21 59  1  0
 24 60  1  0
 25 61  1  0
 25 62  1  0
 26 63  1  0
 26 64  1  0
 28 65  1  0
 31 66  1  0
 32 67  1  0
 32 68  1  0
M  END
>  <Energy>  (865) 
12.850010871804198

>  <compound_id>  (865) 
3743

>  <target_id>  (865) 
1

>  <reference_id>  (865) 
130

>  <inspiration_ids>  (865) 
[130, 150]

>  <energy_score>  (865) 
13.539673264456383

>  <distance_score>  (865) 
2.62556964829015

>  <path>  (865) 
/opt/xchem-fragalysis-2/maxwin/BulkDock/SCRATCH/505734/C3743-P130/C3743-P130.minimised.mol

>  <scratch_subdir>  (865) 
/opt/xchem-fragalysis-2/maxwin/BulkDock/SCRATCH/505734/C3743-P130

>  <fragmenstein_runtime>  (865) 
17.966105699539185

>  <fragmenstein_outcome>  (865) 
too moved

>  <fragmenstein_mode>  (865) 
expansion

>  <fragmenstein_error>  (865) 


$$$$
C3743-P150
     RDKit          3D

 68 71  0  0  0  0  0  0  0  0999 V2000
    0.9837   -6.7749   37.4655 C   0  0  0  0  0  0  0  0  0  0  0  0
    0.0948   -5.6010   37.7553 C   0  0  0  0  0  0  0  0  0  0  0  0
   -0.6321   -5.5905   38.9420 C   0  0  0  0  0  0  0  0  0  0  0  0
   -1.4834   -4.5272   39.1826 C   0  0  0  0  0  0  0  0  0  0  0  0
   -1.5821   -3.5192   38.2298 C   0  0  0  0  0  0  0  0  0  0  0  0
   -0.8144   -3.5840   37.0651 C   0  0  0  0  0  0  0  0  0  0  0  0
   -1.0134   -2.5484   36.1549 N   0  0  0  0  0  0  0  0  0  0  0  0
   -0.3555   -2.2483   34.8902 C   0  0  0  0  0  0  0  0  0  0  0  0
    0.5778   -2.7716   34.3500 O   0  0  0  0  0  0  0  0  0  0  0  0
   -1.1672   -1.1075   34.2098 C   0  0  0  0  0  0  0  0  0  0  0  0
   -2.3610   -1.7675   33.4896 C   0  0  0  0  0  0  0  0  0  0  0  0
   -2.7216   -0.8625   32.3258 C   0  0  0  0  0  0  0  0  0  0  0  0
   -1.8548    0.3720   32.4966 C   0  0  0  0  0  0  0  0  0  0  0  0
   -0.5492   -0.1189   33.1662 C   0  0  0  0  0  0  0  0  0  0  0  0
    0.1873    1.0517   33.8591 C   0  0  0  0  0  0  0  0  0  0  0  0
    1.2753    1.7268   33.0123 C   0  0  0  0  0  0  0  0  0  0  0  0
    0.9914    1.6909   31.5188 C   0  0  0  0  0  0  0  0  0  0  0  0
    0.8256    0.2549   30.9957 C   0  0  0  0  0  0  0  0  0  0  0  0
    2.1129   -0.1845   30.1930 C   0  0  0  0  0  0  0  0  0  0  0  0
    2.1026   -1.6761   30.2063 N   0  0  0  0  0  0  0  0  0  0  0  0
    3.2092   -1.4795   29.1967 C   0  0  0  0  0  0  0  0  0  0  0  0
    1.1261   -2.6134   29.6971 C   0  0  0  0  0  0  0  0  0  0  0  0
    0.1523   -2.4288   29.0737 O   0  0  0  0  0  0  0  0  0  0  0  0
    1.6541   -3.8203   30.2669 N   0  0  0  0  0  0  0  0  0  0  0  0
    1.1103   -5.1367   30.3310 C   0  0  0  0  0  0  0  0  0  0  0  0
    0.6357   -5.4000   31.7633 C   0  0  0  0  0  0  0  0  0  0  0  0
   -0.1939   -6.5614   31.9352 N   0  0  0  0  0  0  0  0  0  0  0  0
   -0.8092   -6.9214   33.0938 C   0  0  0  0  0  0  0  0  0  0  0  0
   -1.5586   -7.9738   32.8665 N   0  0  0  0  0  0  0  0  0  0  0  0
   -1.4193   -8.3173   31.5428 N   0  0  0  0  0  0  0  0  0  0  0  0
   -0.5845   -7.4651   31.0036 C   0  0  0  0  0  0  0  0  0  0  0  0
    0.4004   -0.7366   32.1294 C   0  0  0  0  0  0  0  0  0  0  0  0
    0.0245   -4.6068   36.8232 N   0  0  0  0  0  0  0  0  0  0  0  0
    1.4973   -6.6438   36.5075 H   0  0  0  0  0  0  0  0  0  0  0  0
    1.7419   -6.8811   38.2474 H   0  0  0  0  0  0  0  0  0  0  0  0
    0.3901   -7.6928   37.4100 H   0  0  0  0  0  0  0  0  0  0  0  0
   -0.5478   -6.4036   39.6558 H   0  0  0  0  0  0  0  0  0  0  0  0
   -2.0770   -4.4916   40.0919 H   0  0  0  0  0  0  0  0  0  0  0  0
   -2.2535   -2.6869   38.4124 H   0  0  0  0  0  0  0  0  0  0  0  0
   -1.8200   -1.9532   36.2567 H   0  0  0  0  0  0  0  0  0  0  0  0
   -1.5735   -0.4692   35.0098 H   0  0  0  0  0  0  0  0  0  0  0  0
   -3.2090   -1.8784   34.1753 H   0  0  0  0  0  0  0  0  0  0  0  0
   -2.1156   -2.7694   33.1182 H   0  0  0  0  0  0  0  0  0  0  0  0
   -3.7852   -0.6065   32.3241 H   0  0  0  0  0  0  0  0  0  0  0  0
   -2.4990   -1.3614   31.3756 H   0  0  0  0  0  0  0  0  0  0  0  0
   -2.3782    1.0812   33.1504 H   0  0  0  0  0  0  0  0  0  0  0  0
   -1.7055    0.8594   31.5348 H   0  0  0  0  0  0  0  0  0  0  0  0
   -0.5331    1.8139   34.1817 H   0  0  0  0  0  0  0  0  0  0  0  0
    0.6660    0.6933   34.7801 H   0  0  0  0  0  0  0  0  0  0  0  0
    1.3996    2.7641   33.3448 H   0  0  0  0  0  0  0  0  0  0  0  0
    2.2352    1.2296   33.2027 H   0  0  0  0  0  0  0  0  0  0  0  0
    0.0791    2.2589   31.3258 H   0  0  0  0  0  0  0  0  0  0  0  0
    1.7839    2.2197   30.9762 H   0  0  0  0  0  0  0  0  0  0  0  0
    0.0114    0.2630   30.2569 H   0  0  0  0  0  0  0  0  0  0  0  0
    1.9827    0.3061   29.2137 H   0  0  0  0  0  0  0  0  0  0  0  0
    2.9795    0.2014   30.7519 H   0  0  0  0  0  0  0  0  0  0  0  0
    3.5942   -2.4892   28.9875 H   0  0  0  0  0  0  0  0  0  0  0  0
    4.0977   -0.9432   29.5632 H   0  0  0  0  0  0  0  0  0  0  0  0
    2.8533   -1.1436   28.2098 H   0  0  0  0  0  0  0  0  0  0  0  0
    2.4766   -3.5953   30.8139 H   0  0  0  0  0  0  0  0  0  0  0  0
    0.2630   -5.1687   29.6407 H   0  0  0  0  0  0  0  0  0  0  0  0
    1.8673   -5.8448   29.9962 H   0  0  0  0  0  0  0  0  0  0  0  0
    0.0470   -4.5460   32.1234 H   0  0  0  0  0  0  0  0  0  0  0  0
    1.4971   -5.5099   32.4329 H   0  0  0  0  0  0  0  0  0  0  0  0
   -0.7024   -6.3951   34.0348 H   0  0  0  0  0  0  0  0  0  0  0  0
   -0.2666   -7.4749   29.9744 H   0  0  0  0  0  0  0  0  0  0  0  0
   -0.0772   -1.6198   31.6964 H   0  0  0  0  0  0  0  0  0  0  0  0
    1.3042   -1.0864   32.6444 H   0  0  0  0  0  0  0  0  0  0  0  0
  1  2  1  0
  2  3  2  0
  3  4  1  0
  4  5  2  0
  5  6  1  0
  6  7  1  0
  7  8  1  0
  8  9  2  0
  8 10  1  0
 10 11  1  0
 11 12  1  0
 12 13  1  0
 13 14  1  0
 14 15  1  0
 15 16  1  0
 16 17  1  0
 17 18  1  0
 18 19  1  0
 19 20  1  0
 20 21  1  0
 20 22  1  0
 22 23  2  0
 22 24  1  0
 24 25  1  0
 25 26  1  0
 26 27  1  0
 27 28  1  0
 28 29  2  0
 29 30  1  0
 30 31  2  0
 18 32  1  0
  6 33  2  0
 33  2  1  0
 14 10  1  0
 31 27  1  0
 32 14  1  0
  1 34  1  0
  1 35  1  0
  1 36  1  0
  3 37  1  0
  4 38  1  0
  5 39  1  0
  7 40  1  0
 10 41  1  0
 11 42  1  0
 11 43  1  0
 12 44  1  0
 12 45  1  0
 13 46  1  0
 13 47  1  0
 15 48  1  0
 15 49  1  0
 16 50  1  0
 16 51  1  0
 17 52  1  0
 17 53  1  0
 18 54  1  0
 19 55  1  0
 19 56  1  0
 21 57  1  0
 21 58  1  0
 21 59  1  0
 24 60  1  0
 25 61  1  0
 25 62  1  0
 26 63  1  0
 26 64  1  0
 28 65  1  0
 31 66  1  0
 32 67  1  0
 32 68  1  0
M  END
>  <Energy>  (866) 
19.985761980632677

>  <compound_id>  (866) 
3743

>  <target_id>  (866) 
1

>  <reference_id>  (866) 
150

>  <inspiration_ids>  (866) 
[130, 150]

>  <energy_score>  (866) 
20.675424373283875

>  <distance_score>  (866) 
3.150569867140841

>  <path>  (866) 
/opt/xchem-fragalysis-2/maxwin/BulkDock/SCRATCH/505734/C3743-P150/C3743-P150.minimised.mol

>  <scratch_subdir>  (866) 
/opt/xchem-fragalysis-2/maxwin/BulkDock/SCRATCH/505734/C3743-P150

>  <fragmenstein_runtime>  (866) 
17.119537115097046

>  <fragmenstein_outcome>  (866) 
too moved

>  <fragmenstein_mode>  (866) 
expansion

>  <fragmenstein_error>  (866) 


$$$$
C3744-P130
     RDKit          3D

 53 55  0  0  0  0  0  0  0  0999 V2000
    0.1900   -6.0283   39.3625 C   0  0  0  0  0  0  0  0  0  0  0  0
    1.3617   -6.9683   39.3596 C   0  0  0  0  0  0  0  0  0  0  0  0
    1.8286   -7.3956   40.6237 C   0  0  0  0  0  0  0  0  0  0  0  0
    2.8654   -8.3184   40.7444 C   0  0  0  0  0  0  0  0  0  0  0  0
    3.4526   -8.8177   39.5987 C   0  0  0  0  0  0  0  0  0  0  0  0
    4.4541   -9.7022   39.6947 F   0  0  0  0  0  0  0  0  0  0  0  0
    3.0254   -8.4029   38.3442 C   0  0  0  0  0  0  0  0  0  0  0  0
    1.9859   -7.4692   38.2036 C   0  0  0  0  0  0  0  0  0  0  0  0
    1.6664   -7.1557   36.8748 N   0  0  0  0  0  0  0  0  0  0  0  0
    1.0255   -6.0041   36.3050 C   0  0  0  0  0  0  0  0  0  0  0  0
    0.6685   -4.9785   36.8087 O   0  0  0  0  0  0  0  0  0  0  0  0
    0.8864   -6.1882   34.8606 C   0  0  0  0  0  0  0  0  0  0  0  0
    0.9178   -7.3689   34.2640 N   0  0  0  0  0  0  0  0  0  0  0  0
    0.6739   -7.1781   32.9241 N   0  0  0  0  0  0  0  0  0  0  0  0
    0.5679   -5.8876   32.7167 C   0  0  0  0  0  0  0  0  0  0  0  0
    0.7486   -5.2247   33.8930 N   0  0  0  0  0  0  0  0  0  0  0  0
    0.9661   -3.8041   34.0374 C   0  0  0  0  0  0  0  0  0  0  0  0
   -0.2674   -2.9570   33.7660 C   0  0  0  0  0  0  0  0  0  0  0  0
   -0.2933   -2.4984   32.3973 N   0  0  0  0  0  0  0  0  0  0  0  0
   -1.2483   -2.7354   31.3380 C   0  0  0  0  0  0  0  0  0  0  0  0
   -2.1993   -3.4240   31.3085 O   0  0  0  0  0  0  0  0  0  0  0  0
   -0.7354   -1.7937   30.3516 N   0  0  0  0  0  0  0  0  0  0  0  0
    0.2304   -2.4889   29.4239 C   0  0  0  0  0  0  0  0  0  0  0  0
   -1.3222   -1.3294   29.0437 C   0  0  0  0  0  0  0  0  0  0  0  0
   -0.9290    0.0880   28.6466 C   0  0  0  0  0  0  0  0  0  0  0  0
   -0.0958    0.8967   29.4347 C   0  0  0  0  0  0  0  0  0  0  0  0
    0.1551    2.2229   29.0772 C   0  0  0  0  0  0  0  0  0  0  0  0
   -0.4446    2.7656   27.9438 C   0  0  0  0  0  0  0  0  0  0  0  0
   -1.2763    1.9775   27.1539 C   0  0  0  0  0  0  0  0  0  0  0  0
   -1.5041    0.6436   27.4942 C   0  0  0  0  0  0  0  0  0  0  0  0
    0.5315   -4.9940   39.2676 H   0  0  0  0  0  0  0  0  0  0  0  0
   -0.5199   -6.2784   38.5701 H   0  0  0  0  0  0  0  0  0  0  0  0
   -0.3742   -6.1044   40.2995 H   0  0  0  0  0  0  0  0  0  0  0  0
    1.3612   -7.0194   41.5327 H   0  0  0  0  0  0  0  0  0  0  0  0
    3.2053   -8.6512   41.7191 H   0  0  0  0  0  0  0  0  0  0  0  0
    3.5409   -8.8070   37.4802 H   0  0  0  0  0  0  0  0  0  0  0  0
    1.8983   -7.8066   36.1314 H   0  0  0  0  0  0  0  0  0  0  0  0
    0.3897   -5.4020   31.7672 H   0  0  0  0  0  0  0  0  0  0  0  0
    1.7911   -3.5402   33.3631 H   0  0  0  0  0  0  0  0  0  0  0  0
    1.3291   -3.6057   35.0479 H   0  0  0  0  0  0  0  0  0  0  0  0
   -1.1960   -3.4911   33.9833 H   0  0  0  0  0  0  0  0  0  0  0  0
   -0.2366   -2.0521   34.3816 H   0  0  0  0  0  0  0  0  0  0  0  0
    0.3553   -1.7783   32.1030 H   0  0  0  0  0  0  0  0  0  0  0  0
    1.0069   -2.9121   30.0788 H   0  0  0  0  0  0  0  0  0  0  0  0
    0.8006   -1.8424   28.7402 H   0  0  0  0  0  0  0  0  0  0  0  0
   -0.2015   -3.3819   28.9439 H   0  0  0  0  0  0  0  0  0  0  0  0
   -1.4309   -2.0282   28.1961 H   0  0  0  0  0  0  0  0  0  0  0  0
   -2.3704   -1.2044   29.3374 H   0  0  0  0  0  0  0  0  0  0  0  0
    0.3497    0.5119   30.3474 H   0  0  0  0  0  0  0  0  0  0  0  0
    0.7913    2.8463   29.6998 H   0  0  0  0  0  0  0  0  0  0  0  0
   -0.2820    3.8096   27.6875 H   0  0  0  0  0  0  0  0  0  0  0  0
   -1.7652    2.4078   26.2834 H   0  0  0  0  0  0  0  0  0  0  0  0
   -2.1574    0.0411   26.8649 H   0  0  0  0  0  0  0  0  0  0  0  0
  1  2  1  0
  2  3  2  0
  3  4  1  0
  4  5  2  0
  5  6  1  0
  5  7  1  0
  7  8  2  0
  8  9  1  0
  9 10  1  0
 10 11  2  0
 10 12  1  0
 12 13  2  0
 13 14  1  0
 14 15  2  0
 15 16  1  0
 16 17  1  0
 17 18  1  0
 18 19  1  0
 19 20  1  0
 20 21  2  0
 20 22  1  0
 22 23  1  0
 22 24  1  0
 24 25  1  0
 25 26  2  0
 26 27  1  0
 27 28  2  0
 28 29  1  0
 29 30  2  0
  8  2  1  0
 16 12  1  0
 30 25  1  0
  1 31  1  0
  1 32  1  0
  1 33  1  0
  3 34  1  0
  4 35  1  0
  7 36  1  0
  9 37  1  0
 15 38  1  0
 17 39  1  0
 17 40  1  0
 18 41  1  0
 18 42  1  0
 19 43  1  0
 23 44  1  0
 23 45  1  0
 23 46  1  0
 24 47  1  0
 24 48  1  0
 26 49  1  0
 27 50  1  0
 28 51  1  0
 29 52  1  0
 30 53  1  0
M  END
>  <Energy>  (867) 
32.953201825922591

>  <compound_id>  (867) 
3744

>  <target_id>  (867) 
1

>  <reference_id>  (867) 
130

>  <inspiration_ids>  (867) 
[130, 152]

>  <energy_score>  (867) 
24.850015220535397

>  <distance_score>  (867) 
1.857515020045653

>  <path>  (867) 
/opt/xchem-fragalysis-2/maxwin/BulkDock/SCRATCH/505734/C3744-P130/C3744-P130.minimised.mol

>  <scratch_subdir>  (867) 
/opt/xchem-fragalysis-2/maxwin/BulkDock/SCRATCH/505734/C3744-P130

>  <fragmenstein_runtime>  (867) 
13.03345775604248

>  <fragmenstein_outcome>  (867) 
too moved

>  <fragmenstein_mode>  (867) 
expansion

>  <fragmenstein_error>  (867) 


$$$$
C3744-P152
     RDKit          3D

 53 55  0  0  0  0  0  0  0  0999 V2000
    0.4289   -6.4410   39.4285 C   0  0  0  0  0  0  0  0  0  0  0  0
    1.6695   -7.2641   39.2299 C   0  0  0  0  0  0  0  0  0  0  0  0
    2.2526   -7.8101   40.3963 C   0  0  0  0  0  0  0  0  0  0  0  0
    3.3602   -8.6522   40.3315 C   0  0  0  0  0  0  0  0  0  0  0  0
    3.9013   -8.9509   39.0965 C   0  0  0  0  0  0  0  0  0  0  0  0
    4.9641   -9.7618   39.0135 F   0  0  0  0  0  0  0  0  0  0  0  0
    3.3590   -8.4167   37.9344 C   0  0  0  0  0  0  0  0  0  0  0  0
    2.2486   -7.5580   37.9821 C   0  0  0  0  0  0  0  0  0  0  0  0
    1.8056   -7.1196   36.7259 N   0  0  0  0  0  0  0  0  0  0  0  0
    1.0128   -5.9824   36.3484 C   0  0  0  0  0  0  0  0  0  0  0  0
    0.5912   -5.0717   37.0009 O   0  0  0  0  0  0  0  0  0  0  0  0
    0.7364   -6.0428   34.9120 C   0  0  0  0  0  0  0  0  0  0  0  0
    1.0015   -7.1026   34.1648 N   0  0  0  0  0  0  0  0  0  0  0  0
    0.5533   -6.8436   32.8940 N   0  0  0  0  0  0  0  0  0  0  0  0
    0.0624   -5.6262   32.8768 C   0  0  0  0  0  0  0  0  0  0  0  0
    0.1694   -5.0728   34.1136 N   0  0  0  0  0  0  0  0  0  0  0  0
   -0.2182   -3.7546   34.5637 C   0  0  0  0  0  0  0  0  0  0  0  0
   -0.8554   -2.7971   33.5580 C   0  0  0  0  0  0  0  0  0  0  0  0
    0.0958   -2.1057   32.7251 N   0  0  0  0  0  0  0  0  0  0  0  0
    0.4617   -2.3055   31.3380 C   0  0  0  0  0  0  0  0  0  0  0  0
    0.1281   -3.1314   30.5740 O   0  0  0  0  0  0  0  0  0  0  0  0
    1.2913   -1.1225   31.1443 N   0  0  0  0  0  0  0  0  0  0  0  0
    2.7374   -1.4558   31.4109 C   0  0  0  0  0  0  0  0  0  0  0  0
    1.8810   -0.5351   29.8870 C   0  0  0  0  0  0  0  0  0  0  0  0
    0.7538    0.1955   29.1553 C   0  0  0  0  0  0  0  0  0  0  0  0
   -0.1341   -0.5109   28.3363 C   0  0  0  0  0  0  0  0  0  0  0  0
   -1.1483    0.1579   27.6524 C   0  0  0  0  0  0  0  0  0  0  0  0
   -1.3052    1.5342   27.7927 C   0  0  0  0  0  0  0  0  0  0  0  0
   -0.4426    2.2455   28.6199 C   0  0  0  0  0  0  0  0  0  0  0  0
    0.5784    1.5800   29.3023 C   0  0  0  0  0  0  0  0  0  0  0  0
    0.6743   -5.3757   39.4284 H   0  0  0  0  0  0  0  0  0  0  0  0
   -0.3212   -6.6711   38.6677 H   0  0  0  0  0  0  0  0  0  0  0  0
   -0.0467   -6.6675   40.3901 H   0  0  0  0  0  0  0  0  0  0  0  0
    1.8204   -7.5981   41.3734 H   0  0  0  0  0  0  0  0  0  0  0  0
    3.7876   -9.0812   41.2316 H   0  0  0  0  0  0  0  0  0  0  0  0
    3.8351   -8.6724   36.9929 H   0  0  0  0  0  0  0  0  0  0  0  0
    2.0486   -7.6448   35.8920 H   0  0  0  0  0  0  0  0  0  0  0  0
   -0.3607   -5.1342   32.0124 H   0  0  0  0  0  0  0  0  0  0  0  0
    0.6769   -3.2915   34.9966 H   0  0  0  0  0  0  0  0  0  0  0  0
   -0.9404   -3.9178   35.3719 H   0  0  0  0  0  0  0  0  0  0  0  0
   -1.5635   -3.3038   32.8974 H   0  0  0  0  0  0  0  0  0  0  0  0
   -1.3990   -2.0163   34.1008 H   0  0  0  0  0  0  0  0  0  0  0  0
    0.5089   -1.2417   33.0553 H   0  0  0  0  0  0  0  0  0  0  0  0
    2.7444   -1.9946   32.3709 H   0  0  0  0  0  0  0  0  0  0  0  0
    3.3728   -0.5817   31.6160 H   0  0  0  0  0  0  0  0  0  0  0  0
    3.1791   -2.1887   30.7175 H   0  0  0  0  0  0  0  0  0  0  0  0
    2.6511    0.2389   30.0379 H   0  0  0  0  0  0  0  0  0  0  0  0
    2.2251   -1.3103   29.1827 H   0  0  0  0  0  0  0  0  0  0  0  0
   -0.0449   -1.5893   28.2141 H   0  0  0  0  0  0  0  0  0  0  0  0
   -1.8132   -0.4100   27.0047 H   0  0  0  0  0  0  0  0  0  0  0  0
   -2.1098    2.0485   27.2723 H   0  0  0  0  0  0  0  0  0  0  0  0
   -0.5753    3.3183   28.7444 H   0  0  0  0  0  0  0  0  0  0  0  0
    1.2363    2.1550   29.9494 H   0  0  0  0  0  0  0  0  0  0  0  0
  1  2  1  0
  2  3  2  0
  3  4  1  0
  4  5  2  0
  5  6  1  0
  5  7  1  0
  7  8  2  0
  8  9  1  0
  9 10  1  0
 10 11  2  0
 10 12  1  0
 12 13  2  0
 13 14  1  0
 14 15  2  0
 15 16  1  0
 16 17  1  0
 17 18  1  0
 18 19  1  0
 19 20  1  0
 20 21  2  0
 20 22  1  0
 22 23  1  0
 22 24  1  0
 24 25  1  0
 25 26  2  0
 26 27  1  0
 27 28  2  0
 28 29  1  0
 29 30  2  0
  8  2  1  0
 16 12  1  0
 30 25  1  0
  1 31  1  0
  1 32  1  0
  1 33  1  0
  3 34  1  0
  4 35  1  0
  7 36  1  0
  9 37  1  0
 15 38  1  0
 17 39  1  0
 17 40  1  0
 18 41  1  0
 18 42  1  0
 19 43  1  0
 23 44  1  0
 23 45  1  0
 23 46  1  0
 24 47  1  0
 24 48  1  0
 26 49  1  0
 27 50  1  0
 28 51  1  0
 29 52  1  0
 30 53  1  0
M  END
>  <Energy>  (868) 
26.056597308041859

>  <compound_id>  (868) 
3744

>  <target_id>  (868) 
1

>  <reference_id>  (868) 
152

>  <inspiration_ids>  (868) 
[130, 152]

>  <energy_score>  (868) 
17.95341070265573

>  <distance_score>  (868) 
2.416316463013005

>  <path>  (868) 
/opt/xchem-fragalysis-2/maxwin/BulkDock/SCRATCH/505734/C3744-P152/C3744-P152.minimised.mol

>  <scratch_subdir>  (868) 
/opt/xchem-fragalysis-2/maxwin/BulkDock/SCRATCH/505734/C3744-P152

>  <fragmenstein_runtime>  (868) 
13.43680453300476

>  <fragmenstein_outcome>  (868) 
too moved

>  <fragmenstein_mode>  (868) 
expansion

>  <fragmenstein_error>  (868) 


$$$$
C881-P130
     RDKit          3D

 41 43  0  0  0  0  0  0  0  0999 V2000
   -0.3232   -2.0818   29.4286 C   0  0  0  0  0  0  0  0  0  0  0  0
   -0.9832   -1.4852   30.6652 N   0  0  0  0  0  0  0  0  0  0  0  0
   -1.7226   -0.6947   29.6272 C   0  0  0  0  0  0  0  0  0  0  0  0
   -1.0518    0.5734   29.1207 C   0  0  0  0  0  0  0  0  0  0  0  0
   -0.0929    1.2574   29.8827 C   0  0  0  0  0  0  0  0  0  0  0  0
    0.4653    2.4460   29.4116 C   0  0  0  0  0  0  0  0  0  0  0  0
    0.0593    2.9699   28.1857 C   0  0  0  0  0  0  0  0  0  0  0  0
   -0.8930    2.3003   27.4211 C   0  0  0  0  0  0  0  0  0  0  0  0
   -1.4401    1.1036   27.8810 C   0  0  0  0  0  0  0  0  0  0  0  0
   -1.4430   -2.5528   31.5521 C   0  0  0  0  0  0  0  0  0  0  0  0
   -2.4792   -3.1067   31.6022 O   0  0  0  0  0  0  0  0  0  0  0  0
   -0.2167   -2.7869   32.2804 N   0  0  0  0  0  0  0  0  0  0  0  0
    0.1435   -3.8265   33.2163 C   0  0  0  0  0  0  0  0  0  0  0  0
    0.8493   -4.7980   32.3075 C   0  0  0  0  0  0  0  0  0  0  0  0
    1.9654   -4.3902   31.6532 C   0  0  0  0  0  0  0  0  0  0  0  0
    2.3364   -5.0194   30.4045 C   0  0  0  0  0  0  0  0  0  0  0  0
    1.5738   -5.9862   29.8693 C   0  0  0  0  0  0  0  0  0  0  0  0
    0.4914   -6.5315   30.6131 C   0  0  0  0  0  0  0  0  0  0  0  0
   -0.3131   -7.5454   30.3821 N   0  0  0  0  0  0  0  0  0  0  0  0
   -1.0818   -7.7267   31.5051 N   0  0  0  0  0  0  0  0  0  0  0  0
   -0.7613   -6.8012   32.3839 C   0  0  0  0  0  0  0  0  0  0  0  0
   -1.1587   -6.7557   33.6799 N   0  0  0  0  0  0  0  0  0  0  0  0
    0.1901   -5.9504   31.8402 N   0  0  0  0  0  0  0  0  0  0  0  0
    0.2406   -1.3981   28.7815 H   0  0  0  0  0  0  0  0  0  0  0  0
   -0.9806   -2.7755   28.8806 H   0  0  0  0  0  0  0  0  0  0  0  0
    0.4631   -2.7455   29.8074 H   0  0  0  0  0  0  0  0  0  0  0  0
   -2.5587   -0.3043   30.2269 H   0  0  0  0  0  0  0  0  0  0  0  0
   -2.2546   -1.2709   28.8515 H   0  0  0  0  0  0  0  0  0  0  0  0
    0.2123    0.8774   30.8541 H   0  0  0  0  0  0  0  0  0  0  0  0
    1.1976    2.9807   30.0104 H   0  0  0  0  0  0  0  0  0  0  0  0
    0.4710    3.9125   27.8341 H   0  0  0  0  0  0  0  0  0  0  0  0
   -1.2254    2.7215   26.4758 H   0  0  0  0  0  0  0  0  0  0  0  0
   -2.1845    0.5960   27.2699 H   0  0  0  0  0  0  0  0  0  0  0  0
    0.4511   -2.0656   32.0434 H   0  0  0  0  0  0  0  0  0  0  0  0
    0.8109   -3.4103   33.9757 H   0  0  0  0  0  0  0  0  0  0  0  0
   -0.7654   -4.2006   33.6800 H   0  0  0  0  0  0  0  0  0  0  0  0
    2.4738   -3.4637   31.9077 H   0  0  0  0  0  0  0  0  0  0  0  0
    3.1895   -4.6191   29.8641 H   0  0  0  0  0  0  0  0  0  0  0  0
    1.8276   -6.4179   28.9105 H   0  0  0  0  0  0  0  0  0  0  0  0
   -1.6796   -7.6016   33.9232 H   0  0  0  0  0  0  0  0  0  0  0  0
   -1.7475   -5.9542   33.9126 H   0  0  0  0  0  0  0  0  0  0  0  0
  1  2  1  0
  2  3  1  0
  3  4  1  0
  4  5  2  0
  5  6  1  0
  6  7  2  0
  7  8  1  0
  8  9  2  0
  2 10  1  0
 10 11  2  0
 10 12  1  0
 12 13  1  0
 13 14  1  0
 14 15  2  0
 15 16  1  0
 16 17  2  0
 17 18  1  0
 18 19  2  0
 19 20  1  0
 20 21  2  0
 21 22  1  0
 21 23  1  0
  9  4  1  0
 23 14  1  0
 23 18  1  0
  1 24  1  0
  1 25  1  0
  1 26  1  0
  3 27  1  0
  3 28  1  0
  5 29  1  0
  6 30  1  0
  7 31  1  0
  8 32  1  0
  9 33  1  0
 12 34  1  0
 13 35  1  0
 13 36  1  0
 15 37  1  0
 16 38  1  0
 17 39  1  0
 22 40  1  0
 22 41  1  0
M  END
>  <Energy>  (869) 
46.744520999392066

>  <compound_id>  (869) 
881

>  <target_id>  (869) 
1

>  <reference_id>  (869) 
130

>  <inspiration_ids>  (869) 
[130, 156]

>  <energy_score>  (869) 
48.724448991813716

>  <distance_score>  (869) 
1.3230822460309024

>  <path>  (869) 
/opt/xchem-fragalysis-2/maxwin/BulkDock/SCRATCH/505734/C881-P130/C881-P130.minimised.mol

>  <scratch_subdir>  (869) 
/opt/xchem-fragalysis-2/maxwin/BulkDock/SCRATCH/505734/C881-P130

>  <fragmenstein_runtime>  (869) 
4.286475419998169

>  <fragmenstein_outcome>  (869) 
too moved

>  <fragmenstein_mode>  (869) 
expansion

>  <fragmenstein_error>  (869) 


$$$$
C881-P156
     RDKit          3D

 41 43  0  0  0  0  0  0  0  0999 V2000
   -0.0976   -2.0457   29.4809 C   0  0  0  0  0  0  0  0  0  0  0  0
   -0.8027   -1.4232   30.6806 N   0  0  0  0  0  0  0  0  0  0  0  0
   -1.5280   -0.6807   29.5985 C   0  0  0  0  0  0  0  0  0  0  0  0
   -0.8676    0.5764   29.0523 C   0  0  0  0  0  0  0  0  0  0  0  0
    0.0963    1.2852   29.7847 C   0  0  0  0  0  0  0  0  0  0  0  0
    0.6351    2.4692   29.2808 C   0  0  0  0  0  0  0  0  0  0  0  0
    0.2065    2.9630   28.0503 C   0  0  0  0  0  0  0  0  0  0  0  0
   -0.7473    2.2666   27.3125 C   0  0  0  0  0  0  0  0  0  0  0  0
   -1.2748    1.0743   27.8051 C   0  0  0  0  0  0  0  0  0  0  0  0
   -1.2669   -2.4721   31.5893 C   0  0  0  0  0  0  0  0  0  0  0  0
   -2.2934   -3.0440   31.6291 O   0  0  0  0  0  0  0  0  0  0  0  0
   -0.0559   -2.6599   32.3586 N   0  0  0  0  0  0  0  0  0  0  0  0
    0.2971   -3.6638   33.3369 C   0  0  0  0  0  0  0  0  0  0  0  0
    0.9746   -4.6827   32.4583 C   0  0  0  0  0  0  0  0  0  0  0  0
    2.1182   -4.3312   31.8190 C   0  0  0  0  0  0  0  0  0  0  0  0
    2.4624   -4.9703   30.5674 C   0  0  0  0  0  0  0  0  0  0  0  0
    1.6537   -5.8930   30.0215 C   0  0  0  0  0  0  0  0  0  0  0  0
    0.5491   -6.3978   30.7600 C   0  0  0  0  0  0  0  0  0  0  0  0
   -0.2890   -7.3840   30.5292 N   0  0  0  0  0  0  0  0  0  0  0  0
   -1.0759   -7.5271   31.6455 N   0  0  0  0  0  0  0  0  0  0  0  0
   -0.7346   -6.6027   32.5177 C   0  0  0  0  0  0  0  0  0  0  0  0
   -1.1635   -6.5174   33.8014 N   0  0  0  0  0  0  0  0  0  0  0  0
    0.2648   -5.8024   31.9842 N   0  0  0  0  0  0  0  0  0  0  0  0
    0.6885   -2.6856   29.8983 H   0  0  0  0  0  0  0  0  0  0  0  0
   -0.7289   -2.7656   28.9358 H   0  0  0  0  0  0  0  0  0  0  0  0
    0.4728   -1.3728   28.8286 H   0  0  0  0  0  0  0  0  0  0  0  0
   -2.3781   -0.2784   30.1695 H   0  0  0  0  0  0  0  0  0  0  0  0
   -2.0392   -1.2945   28.8378 H   0  0  0  0  0  0  0  0  0  0  0  0
    0.4166    0.9317   30.7613 H   0  0  0  0  0  0  0  0  0  0  0  0
    1.3677    3.0259   29.8592 H   0  0  0  0  0  0  0  0  0  0  0  0
    0.6012    3.9035   27.6744 H   0  0  0  0  0  0  0  0  0  0  0  0
   -1.0969    2.6640   26.3630 H   0  0  0  0  0  0  0  0  0  0  0  0
   -2.0204    0.5456   27.2137 H   0  0  0  0  0  0  0  0  0  0  0  0
    0.6605   -2.0425   32.0027 H   0  0  0  0  0  0  0  0  0  0  0  0
    0.9820   -3.2248   34.0677 H   0  0  0  0  0  0  0  0  0  0  0  0
   -0.6100   -4.0033   33.8304 H   0  0  0  0  0  0  0  0  0  0  0  0
    2.6669   -3.4291   32.0781 H   0  0  0  0  0  0  0  0  0  0  0  0
    3.3341   -4.6061   30.0309 H   0  0  0  0  0  0  0  0  0  0  0  0
    1.8878   -6.3249   29.0590 H   0  0  0  0  0  0  0  0  0  0  0  0
   -1.7301   -7.3318   34.0417 H   0  0  0  0  0  0  0  0  0  0  0  0
   -1.7303   -5.6895   34.0036 H   0  0  0  0  0  0  0  0  0  0  0  0
  1  2  1  0
  2  3  1  0
  3  4  1  0
  4  5  2  0
  5  6  1  0
  6  7  2  0
  7  8  1  0
  8  9  2  0
  2 10  1  0
 10 11  2  0
 10 12  1  0
 12 13  1  0
 13 14  1  0
 14 15  2  0
 15 16  1  0
 16 17  2  0
 17 18  1  0
 18 19  2  0
 19 20  1  0
 20 21  2  0
 21 22  1  0
 21 23  1  0
  9  4  1  0
 23 14  1  0
 23 18  1  0
  1 24  1  0
  1 25  1  0
  1 26  1  0
  3 27  1  0
  3 28  1  0
  5 29  1  0
  6 30  1  0
  7 31  1  0
  8 32  1  0
  9 33  1  0
 12 34  1  0
 13 35  1  0
 13 36  1  0
 15 37  1  0
 16 38  1  0
 17 39  1  0
 22 40  1  0
 22 41  1  0
M  END
>  <Energy>  (870) 
48.017371316232534

>  <compound_id>  (870) 
881

>  <target_id>  (870) 
1

>  <reference_id>  (870) 
156

>  <inspiration_ids>  (870) 
[130, 156]

>  <energy_score>  (870) 
49.99729930865308

>  <distance_score>  (870) 
1.3995964752933379

>  <path>  (870) 
/opt/xchem-fragalysis-2/maxwin/BulkDock/SCRATCH/505734/C881-P156/C881-P156.minimised.mol

>  <scratch_subdir>  (870) 
/opt/xchem-fragalysis-2/maxwin/BulkDock/SCRATCH/505734/C881-P156

>  <fragmenstein_runtime>  (870) 
3.6593520641326904

>  <fragmenstein_outcome>  (870) 
too moved

>  <fragmenstein_mode>  (870) 
expansion

>  <fragmenstein_error>  (870) 


$$$$
C3747-P130
     RDKit          3D

 54 56  0  0  0  0  0  0  0  0999 V2000
   -2.7091   -1.5411   33.5134 C   0  0  0  0  0  0  0  0  0  0  0  0
   -1.3154   -1.3840   32.9505 N   0  0  0  0  0  0  0  0  0  0  0  0
   -2.0450   -0.5266   31.9525 C   0  0  0  0  0  0  0  0  0  0  0  0
   -1.1024   -0.1322   30.8152 C   0  0  0  0  0  0  0  0  0  0  0  0
   -0.0671    0.7880   31.0320 C   0  0  0  0  0  0  0  0  0  0  0  0
    0.7291    1.2244   29.9716 C   0  0  0  0  0  0  0  0  0  0  0  0
    0.5047    0.7429   28.6840 C   0  0  0  0  0  0  0  0  0  0  0  0
   -0.5046   -0.1885   28.4584 C   0  0  0  0  0  0  0  0  0  0  0  0
   -1.2969   -0.6311   29.5175 C   0  0  0  0  0  0  0  0  0  0  0  0
   -0.3837   -1.0170   34.0165 C   0  0  0  0  0  0  0  0  0  0  0  0
   -0.0513    0.0409   34.4035 O   0  0  0  0  0  0  0  0  0  0  0  0
    0.0236   -2.3383   34.4319 N   0  0  0  0  0  0  0  0  0  0  0  0
    0.8874   -2.7687   35.5086 C   0  0  0  0  0  0  0  0  0  0  0  0
    1.5767   -4.0965   35.1228 C   0  0  0  0  0  0  0  0  0  0  0  0
    0.6361   -4.8944   34.3348 N   0  0  0  0  0  0  0  0  0  0  0  0
    0.0502   -6.0589   34.9584 C   0  0  0  0  0  0  0  0  0  0  0  0
   -0.2685   -6.0303   36.8504 Br  0  0  0  0  0  0  0  0  0  0  0  0
    0.9161   -7.1696   34.5949 N   0  0  0  0  0  0  0  0  0  0  0  0
    1.5450   -6.7689   33.3314 N   0  0  0  0  0  0  0  0  0  0  0  0
    1.0865   -5.3992   33.0445 C   0  0  0  0  0  0  0  0  0  0  0  0
    2.1251   -4.5592   32.3055 C   0  0  0  0  0  0  0  0  0  0  0  0
    2.3460   -5.0753   30.9256 C   0  0  0  0  0  0  0  0  0  0  0  0
    3.3577   -4.8361   30.2762 O   0  0  0  0  0  0  0  0  0  0  0  0
    1.3765   -5.8608   30.4228 O   0  0  0  0  0  0  0  0  0  0  0  0
    0.0577   -5.6110   30.8897 C   0  0  0  0  0  0  0  0  0  0  0  0
   -0.7438   -6.8754   30.5834 C   0  0  0  0  0  0  0  0  0  0  0  0
   -0.4756   -4.3401   30.2277 C   0  0  0  0  0  0  0  0  0  0  0  0
   -0.0965   -5.4552   32.2816 O   0  0  0  0  0  0  0  0  0  0  0  0
   -3.3721   -2.1591   32.8901 H   0  0  0  0  0  0  0  0  0  0  0  0
   -3.1704   -0.6147   33.8909 H   0  0  0  0  0  0  0  0  0  0  0  0
   -2.5978   -2.1398   34.4294 H   0  0  0  0  0  0  0  0  0  0  0  0
   -2.8837   -1.0184   31.4390 H   0  0  0  0  0  0  0  0  0  0  0  0
   -2.3531    0.4317   32.3979 H   0  0  0  0  0  0  0  0  0  0  0  0
    0.1159    1.1881   32.0276 H   0  0  0  0  0  0  0  0  0  0  0  0
    1.5195    1.9488   30.1509 H   0  0  0  0  0  0  0  0  0  0  0  0
    1.1186    1.0897   27.8577 H   0  0  0  0  0  0  0  0  0  0  0  0
   -0.6852   -0.5719   27.4570 H   0  0  0  0  0  0  0  0  0  0  0  0
   -2.0765   -1.3568   29.3034 H   0  0  0  0  0  0  0  0  0  0  0  0
   -0.5300   -3.0272   33.9361 H   0  0  0  0  0  0  0  0  0  0  0  0
    0.2505   -2.9008   36.3887 H   0  0  0  0  0  0  0  0  0  0  0  0
    1.6158   -1.9815   35.7257 H   0  0  0  0  0  0  0  0  0  0  0  0
    2.4668   -3.8078   34.5605 H   0  0  0  0  0  0  0  0  0  0  0  0
    1.9796   -4.6046   36.0051 H   0  0  0  0  0  0  0  0  0  0  0  0
   -0.9502   -6.2258   34.5380 H   0  0  0  0  0  0  0  0  0  0  0  0
    0.3107   -7.9913   34.5249 H   0  0  0  0  0  0  0  0  0  0  0  0
    1.2261   -7.3476   32.5529 H   0  0  0  0  0  0  0  0  0  0  0  0
    3.0985   -4.5956   32.8074 H   0  0  0  0  0  0  0  0  0  0  0  0
    1.8005   -3.5166   32.2119 H   0  0  0  0  0  0  0  0  0  0  0  0
   -1.6694   -6.9226   31.1626 H   0  0  0  0  0  0  0  0  0  0  0  0
   -0.9844   -6.9734   29.5291 H   0  0  0  0  0  0  0  0  0  0  0  0
   -0.1717   -7.7712   30.8522 H   0  0  0  0  0  0  0  0  0  0  0  0
    0.2108   -3.4994   30.3792 H   0  0  0  0  0  0  0  0  0  0  0  0
   -1.4266   -4.0228   30.6658 H   0  0  0  0  0  0  0  0  0  0  0  0
   -0.5769   -4.4573   29.1455 H   0  0  0  0  0  0  0  0  0  0  0  0
  1  2  1  0
  2  3  1  0
  3  4  1  0
  4  5  2  0
  5  6  1  0
  6  7  2  0
  7  8  1  0
  8  9  2  0
  2 10  1  0
 10 11  2  0
 10 12  1  0
 12 13  1  0
 13 14  1  0
 14 15  1  0
 15 16  1  0
 16 17  1  0
 16 18  1  0
 18 19  1  0
 19 20  1  0
 20 21  1  0
 21 22  1  0
 22 23  2  0
 22 24  1  0
 24 25  1  0
 25 26  1  0
 25 27  1  0
 25 28  1  0
  9  4  1  0
 20 15  1  0
 28 20  1  0
  1 29  1  0
  1 30  1  0
  1 31  1  0
  3 32  1  0
  3 33  1  0
  5 34  1  0
  6 35  1  0
  7 36  1  0
  8 37  1  0
  9 38  1  0
 12 39  1  0
 13 40  1  0
 13 41  1  0
 14 42  1  0
 14 43  1  0
 16 44  1  0
 18 45  1  0
 19 46  1  0
 21 47  1  0
 21 48  1  0
 26 49  1  0
 26 50  1  0
 26 51  1  0
 27 52  1  0
 27 53  1  0
 27 54  1  0
M  END
>  <Energy>  (871) 
-55.925283179785836

>  <compound_id>  (871) 
3747

>  <target_id>  (871) 
1

>  <reference_id>  (871) 
130

>  <inspiration_ids>  (871) 
[130, 157]

>  <energy_score>  (871) 
30.289900768032993

>  <distance_score>  (871) 
3.3332670489321927

>  <path>  (871) 
/opt/xchem-fragalysis-2/maxwin/BulkDock/SCRATCH/505734/C3747-P130/C3747-P130.minimised.mol

>  <scratch_subdir>  (871) 
/opt/xchem-fragalysis-2/maxwin/BulkDock/SCRATCH/505734/C3747-P130

>  <fragmenstein_runtime>  (871) 
10.503279447555542

>  <fragmenstein_outcome>  (871) 
too moved

>  <fragmenstein_mode>  (871) 
expansion

>  <fragmenstein_error>  (871) 


$$$$
C3747-P157
     RDKit          3D

 54 56  0  0  0  0  0  0  0  0999 V2000
    0.3158   -1.5842   30.2014 C   0  0  0  0  0  0  0  0  0  0  0  0
   -0.8516   -1.0436   30.9998 N   0  0  0  0  0  0  0  0  0  0  0  0
   -1.2269   -0.4730   29.6579 C   0  0  0  0  0  0  0  0  0  0  0  0
   -0.5813    0.7931   29.1332 C   0  0  0  0  0  0  0  0  0  0  0  0
    0.2173    1.6289   29.9258 C   0  0  0  0  0  0  0  0  0  0  0  0
    0.7082    2.8292   29.4119 C   0  0  0  0  0  0  0  0  0  0  0  0
    0.3938    3.2130   28.1096 C   0  0  0  0  0  0  0  0  0  0  0  0
   -0.4027    2.3945   27.3134 C   0  0  0  0  0  0  0  0  0  0  0  0
   -0.8835    1.1884   27.8191 C   0  0  0  0  0  0  0  0  0  0  0  0
   -1.4738   -2.1248   31.7868 C   0  0  0  0  0  0  0  0  0  0  0  0
   -2.3545   -2.8532   31.5115 O   0  0  0  0  0  0  0  0  0  0  0  0
   -0.7429   -1.9576   33.0333 N   0  0  0  0  0  0  0  0  0  0  0  0
   -0.9383   -2.5606   34.3293 C   0  0  0  0  0  0  0  0  0  0  0  0
   -0.0597   -3.7457   34.7827 C   0  0  0  0  0  0  0  0  0  0  0  0
   -0.2788   -5.0382   34.1490 N   0  0  0  0  0  0  0  0  0  0  0  0
   -0.4347   -6.1917   35.0156 C   0  0  0  0  0  0  0  0  0  0  0  0
    0.7891   -6.2748   36.5405 Br  0  0  0  0  0  0  0  0  0  0  0  0
   -0.1124   -7.3390   34.1778 N   0  0  0  0  0  0  0  0  0  0  0  0
    0.9179   -6.8133   33.3053 N   0  0  0  0  0  0  0  0  0  0  0  0
    0.4875   -5.4445   32.9833 C   0  0  0  0  0  0  0  0  0  0  0  0
    1.6829   -4.5740   32.6464 C   0  0  0  0  0  0  0  0  0  0  0  0
    2.2793   -4.9946   31.3525 C   0  0  0  0  0  0  0  0  0  0  0  0
    3.3424   -4.5447   30.9393 O   0  0  0  0  0  0  0  0  0  0  0  0
    1.6123   -5.9467   30.6712 O   0  0  0  0  0  0  0  0  0  0  0  0
    0.1834   -5.8515   30.6602 C   0  0  0  0  0  0  0  0  0  0  0  0
   -0.1765   -4.8216   29.5962 C   0  0  0  0  0  0  0  0  0  0  0  0
   -0.3722   -7.2466   30.3356 C   0  0  0  0  0  0  0  0  0  0  0  0
   -0.4033   -5.4457   31.8855 O   0  0  0  0  0  0  0  0  0  0  0  0
    0.0896   -2.2046   29.3255 H   0  0  0  0  0  0  0  0  0  0  0  0
    0.8444   -2.2705   30.8717 H   0  0  0  0  0  0  0  0  0  0  0  0
    1.0818   -0.8308   29.9837 H   0  0  0  0  0  0  0  0  0  0  0  0
   -1.4671   -1.2215   28.8816 H   0  0  0  0  0  0  0  0  0  0  0  0
   -2.2439   -0.1200   29.8945 H   0  0  0  0  0  0  0  0  0  0  0  0
    0.4384    1.3681   30.9574 H   0  0  0  0  0  0  0  0  0  0  0  0
    1.3098    3.4848   30.0363 H   0  0  0  0  0  0  0  0  0  0  0  0
    0.7513    4.1639   27.7230 H   0  0  0  0  0  0  0  0  0  0  0  0
   -0.6704    2.7086   26.3082 H   0  0  0  0  0  0  0  0  0  0  0  0
   -1.5226    0.5691   27.1897 H   0  0  0  0  0  0  0  0  0  0  0  0
   -0.1031   -1.1801   32.9399 H   0  0  0  0  0  0  0  0  0  0  0  0
   -1.9904   -2.8382   34.3918 H   0  0  0  0  0  0  0  0  0  0  0  0
   -0.7963   -1.7451   35.0491 H   0  0  0  0  0  0  0  0  0  0  0  0
    0.9955   -3.4522   34.7923 H   0  0  0  0  0  0  0  0  0  0  0  0
   -0.3273   -3.8335   35.8441 H   0  0  0  0  0  0  0  0  0  0  0  0
   -1.4423   -6.2659   35.4353 H   0  0  0  0  0  0  0  0  0  0  0  0
   -0.9715   -7.5578   33.6640 H   0  0  0  0  0  0  0  0  0  0  0  0
    1.0223   -7.3613   32.4548 H   0  0  0  0  0  0  0  0  0  0  0  0
    2.4556   -4.6428   33.4213 H   0  0  0  0  0  0  0  0  0  0  0  0
    1.3978   -3.5284   32.5211 H   0  0  0  0  0  0  0  0  0  0  0  0
    0.7043   -4.4177   29.0866 H   0  0  0  0  0  0  0  0  0  0  0  0
   -0.8338   -5.2150   28.8254 H   0  0  0  0  0  0  0  0  0  0  0  0
   -0.7354   -4.0015   30.0356 H   0  0  0  0  0  0  0  0  0  0  0  0
    0.3569   -7.8686   29.8125 H   0  0  0  0  0  0  0  0  0  0  0  0
   -1.2829   -7.1955   29.7361 H   0  0  0  0  0  0  0  0  0  0  0  0
   -0.6578   -7.7959   31.2386 H   0  0  0  0  0  0  0  0  0  0  0  0
  1  2  1  0
  2  3  1  0
  3  4  1  0
  4  5  2  0
  5  6  1  0
  6  7  2  0
  7  8  1  0
  8  9  2  0
  2 10  1  0
 10 11  2  0
 10 12  1  0
 12 13  1  0
 13 14  1  0
 14 15  1  0
 15 16  1  0
 16 17  1  0
 16 18  1  0
 18 19  1  0
 19 20  1  0
 20 21  1  0
 21 22  1  0
 22 23  2  0
 22 24  1  0
 24 25  1  0
 25 26  1  0
 25 27  1  0
 25 28  1  0
  9  4  1  0
 20 15  1  0
 28 20  1  0
  1 29  1  0
  1 30  1  0
  1 31  1  0
  3 32  1  0
  3 33  1  0
  5 34  1  0
  6 35  1  0
  7 36  1  0
  8 37  1  0
  9 38  1  0
 12 39  1  0
 13 40  1  0
 13 41  1  0
 14 42  1  0
 14 43  1  0
 16 44  1  0
 18 45  1  0
 19 46  1  0
 21 47  1  0
 21 48  1  0
 26 49  1  0
 26 50  1  0
 26 51  1  0
 27 52  1  0
 27 53  1  0
 27 54  1  0
M  END
>  <Energy>  (872) 
-37.623650363302851

>  <compound_id>  (872) 
3747

>  <target_id>  (872) 
1

>  <reference_id>  (872) 
157

>  <inspiration_ids>  (872) 
[130, 157]

>  <energy_score>  (872) 
48.591533584515474

>  <distance_score>  (872) 
2.646302040051508

>  <path>  (872) 
/opt/xchem-fragalysis-2/maxwin/BulkDock/SCRATCH/505734/C3747-P157/C3747-P157.minimised.mol

>  <scratch_subdir>  (872) 
/opt/xchem-fragalysis-2/maxwin/BulkDock/SCRATCH/505734/C3747-P157

>  <fragmenstein_runtime>  (872) 
9.236550092697144

>  <fragmenstein_outcome>  (872) 
too moved

>  <fragmenstein_mode>  (872) 
expansion

>  <fragmenstein_error>  (872) 


$$$$
C3214-P130
     RDKit          3D

 38 40  0  0  0  0  0  0  0  0999 V2000
    1.3248   -0.5940   33.3393 C   0  0  0  0  0  0  0  0  0  0  0  0
    0.8509   -1.3516   32.1195 N   0  0  0  0  0  0  0  0  0  0  0  0
    0.6347    0.0538   31.5969 C   0  0  0  0  0  0  0  0  0  0  0  0
   -0.0688    0.0458   30.2352 C   0  0  0  0  0  0  0  0  0  0  0  0
   -0.7626   -1.0628   29.7376 C   0  0  0  0  0  0  0  0  0  0  0  0
   -1.4122   -0.9920   28.5052 C   0  0  0  0  0  0  0  0  0  0  0  0
   -1.4038    0.1904   27.7686 C   0  0  0  0  0  0  0  0  0  0  0  0
   -0.7391    1.3078   28.2555 C   0  0  0  0  0  0  0  0  0  0  0  0
   -0.0718    1.2335   29.4782 C   0  0  0  0  0  0  0  0  0  0  0  0
    1.8367   -2.3629   31.7432 C   0  0  0  0  0  0  0  0  0  0  0  0
    2.7497   -2.2954   31.0092 O   0  0  0  0  0  0  0  0  0  0  0  0
    1.3430   -3.4772   32.5317 N   0  0  0  0  0  0  0  0  0  0  0  0
    1.8714   -4.7937   32.7251 C   0  0  0  0  0  0  0  0  0  0  0  0
    0.7824   -5.7267   33.1346 C   0  0  0  0  0  0  0  0  0  0  0  0
    0.4897   -5.9855   34.4299 C   0  0  0  0  0  0  0  0  0  0  0  0
   -0.4942   -6.8625   34.8569 N   0  0  0  0  0  0  0  0  0  0  0  0
   -1.1670   -7.5103   33.9418 C   0  0  0  0  0  0  0  0  0  0  0  0
   -0.8996   -7.3277   32.5521 C   0  0  0  0  0  0  0  0  0  0  0  0
   -1.4351   -7.9138   31.5094 N   0  0  0  0  0  0  0  0  0  0  0  0
   -0.8287   -7.3672   30.4001 N   0  0  0  0  0  0  0  0  0  0  0  0
    0.0371   -6.4616   30.8130 C   0  0  0  0  0  0  0  0  0  0  0  0
    0.0528   -6.4236   32.1765 N   0  0  0  0  0  0  0  0  0  0  0  0
    2.2451   -0.0080   33.1916 H   0  0  0  0  0  0  0  0  0  0  0  0
    1.6410   -1.3598   34.0636 H   0  0  0  0  0  0  0  0  0  0  0  0
    0.5276   -0.0623   33.8791 H   0  0  0  0  0  0  0  0  0  0  0  0
   -0.0527    0.6620   32.2072 H   0  0  0  0  0  0  0  0  0  0  0  0
    1.5999    0.5465   31.3956 H   0  0  0  0  0  0  0  0  0  0  0  0
   -0.7993   -1.9977   30.2885 H   0  0  0  0  0  0  0  0  0  0  0  0
   -1.9290   -1.8637   28.1064 H   0  0  0  0  0  0  0  0  0  0  0  0
   -1.9193    0.2253   26.8119 H   0  0  0  0  0  0  0  0  0  0  0  0
   -0.7424    2.2338   27.6870 H   0  0  0  0  0  0  0  0  0  0  0  0
    0.4443    2.1197   29.8420 H   0  0  0  0  0  0  0  0  0  0  0  0
    0.5817   -3.1568   33.1175 H   0  0  0  0  0  0  0  0  0  0  0  0
    2.3868   -5.1134   31.8136 H   0  0  0  0  0  0  0  0  0  0  0  0
    2.6395   -4.7165   33.5033 H   0  0  0  0  0  0  0  0  0  0  0  0
    1.0315   -5.4859   35.2318 H   0  0  0  0  0  0  0  0  0  0  0  0
   -1.9712   -8.1933   34.2476 H   0  0  0  0  0  0  0  0  0  0  0  0
    0.6499   -5.8329   30.1821 H   0  0  0  0  0  0  0  0  0  0  0  0
  1  2  1  0
  2  3  1  0
  3  4  1  0
  4  5  2  0
  5  6  1  0
  6  7  2  0
  7  8  1  0
  8  9  2  0
  2 10  1  0
 10 11  2  0
 10 12  1  0
 12 13  1  0
 13 14  1  0
 14 15  2  0
 15 16  1  0
 16 17  2  0
 17 18  1  0
 18 19  2  0
 19 20  1  0
 20 21  2  0
 21 22  1  0
  9  4  1  0
 22 14  1  0
 22 18  1  0
  1 23  1  0
  1 24  1  0
  1 25  1  0
  3 26  1  0
  3 27  1  0
  5 28  1  0
  6 29  1  0
  7 30  1  0
  8 31  1  0
  9 32  1  0
 12 33  1  0
 13 34  1  0
 13 35  1  0
 15 36  1  0
 17 37  1  0
 21 38  1  0
M  END
>  <Energy>  (873) 
18.474829589265156

>  <compound_id>  (873) 
3214

>  <target_id>  (873) 
1

>  <reference_id>  (873) 
130

>  <inspiration_ids>  (873) 
[130, 158]

>  <energy_score>  (873) 
53.314691008031105

>  <distance_score>  (873) 
2.770348392325764

>  <path>  (873) 
/opt/xchem-fragalysis-2/maxwin/BulkDock/SCRATCH/505734/C3214-P130/C3214-P130.minimised.mol

>  <scratch_subdir>  (873) 
/opt/xchem-fragalysis-2/maxwin/BulkDock/SCRATCH/505734/C3214-P130

>  <fragmenstein_runtime>  (873) 
4.829689025878906

>  <fragmenstein_outcome>  (873) 
too moved

>  <fragmenstein_mode>  (873) 
expansion

>  <fragmenstein_error>  (873) 


$$$$
C3214-P158
     RDKit          3D

 38 40  0  0  0  0  0  0  0  0999 V2000
   -1.1446   -1.7786   29.8978 C   0  0  0  0  0  0  0  0  0  0  0  0
    0.0620   -2.6349   29.6323 N   0  0  0  0  0  0  0  0  0  0  0  0
    0.0735   -1.8362   28.3287 C   0  0  0  0  0  0  0  0  0  0  0  0
    0.2864   -0.3312   28.2182 C   0  0  0  0  0  0  0  0  0  0  0  0
   -0.6259    0.4298   27.4702 C   0  0  0  0  0  0  0  0  0  0  0  0
   -0.4694    1.8073   27.3220 C   0  0  0  0  0  0  0  0  0  0  0  0
    0.6238    2.4431   27.8986 C   0  0  0  0  0  0  0  0  0  0  0  0
    1.5510    1.7002   28.6239 C   0  0  0  0  0  0  0  0  0  0  0  0
    1.3879    0.3206   28.7771 C   0  0  0  0  0  0  0  0  0  0  0  0
    0.9665   -2.5951   30.7767 C   0  0  0  0  0  0  0  0  0  0  0  0
    1.8668   -1.8792   31.0084 O   0  0  0  0  0  0  0  0  0  0  0  0
    0.4831   -3.7565   31.4889 N   0  0  0  0  0  0  0  0  0  0  0  0
    1.0104   -4.4413   32.6367 C   0  0  0  0  0  0  0  0  0  0  0  0
    0.1174   -5.5569   33.0818 C   0  0  0  0  0  0  0  0  0  0  0  0
   -0.2969   -5.6850   34.3632 C   0  0  0  0  0  0  0  0  0  0  0  0
   -1.1070   -6.7074   34.8333 N   0  0  0  0  0  0  0  0  0  0  0  0
   -1.5319   -7.5986   33.9778 C   0  0  0  0  0  0  0  0  0  0  0  0
   -1.1528   -7.5361   32.6039 C   0  0  0  0  0  0  0  0  0  0  0  0
   -1.4940   -8.3073   31.6005 N   0  0  0  0  0  0  0  0  0  0  0  0
   -0.8407   -7.8231   30.4899 N   0  0  0  0  0  0  0  0  0  0  0  0
   -0.1295   -6.7799   30.8633 C   0  0  0  0  0  0  0  0  0  0  0  0
   -0.3186   -6.5354   32.1925 N   0  0  0  0  0  0  0  0  0  0  0  0
   -1.6102   -2.2291   30.7887 H   0  0  0  0  0  0  0  0  0  0  0  0
   -1.9557   -1.8382   29.1601 H   0  0  0  0  0  0  0  0  0  0  0  0
   -0.9102   -0.7662   30.2539 H   0  0  0  0  0  0  0  0  0  0  0  0
   -0.7223   -2.2002   27.6584 H   0  0  0  0  0  0  0  0  0  0  0  0
    0.9768   -2.2429   27.8472 H   0  0  0  0  0  0  0  0  0  0  0  0
   -1.4579   -0.0590   26.9707 H   0  0  0  0  0  0  0  0  0  0  0  0
   -1.1958    2.3825   26.7508 H   0  0  0  0  0  0  0  0  0  0  0  0
    0.7521    3.5167   27.7803 H   0  0  0  0  0  0  0  0  0  0  0  0
    2.4128    2.1933   29.0669 H   0  0  0  0  0  0  0  0  0  0  0  0
    2.1430   -0.2359   29.3250 H   0  0  0  0  0  0  0  0  0  0  0  0
   -0.2640   -4.1803   30.9590 H   0  0  0  0  0  0  0  0  0  0  0  0
    1.9959   -4.8320   32.3596 H   0  0  0  0  0  0  0  0  0  0  0  0
    1.1724   -3.6934   33.4205 H   0  0  0  0  0  0  0  0  0  0  0  0
   -0.0060   -4.9569   35.1194 H   0  0  0  0  0  0  0  0  0  0  0  0
   -2.2084   -8.3956   34.3170 H   0  0  0  0  0  0  0  0  0  0  0  0
    0.5073   -6.1876   30.2222 H   0  0  0  0  0  0  0  0  0  0  0  0
  1  2  1  0
  2  3  1  0
  3  4  1  0
  4  5  2  0
  5  6  1  0
  6  7  2  0
  7  8  1  0
  8  9  2  0
  2 10  1  0
 10 11  2  0
 10 12  1  0
 12 13  1  0
 13 14  1  0
 14 15  2  0
 15 16  1  0
 16 17  2  0
 17 18  1  0
 18 19  2  0
 19 20  1  0
 20 21  2  0
 21 22  1  0
  9  4  1  0
 22 14  1  0
 22 18  1  0
  1 23  1  0
  1 24  1  0
  1 25  1  0
  3 26  1  0
  3 27  1  0
  5 28  1  0
  6 29  1  0
  7 30  1  0
  8 31  1  0
  9 32  1  0
 12 33  1  0
 13 34  1  0
 13 35  1  0
 15 36  1  0
 17 37  1  0
 21 38  1  0
M  END
>  <Energy>  (874) 
27.50478340723161

>  <compound_id>  (874) 
3214

>  <target_id>  (874) 
1

>  <reference_id>  (874) 
158

>  <inspiration_ids>  (874) 
[130, 158]

>  <energy_score>  (874) 
62.344644825996795

>  <distance_score>  (874) 
2.43388146503859

>  <path>  (874) 
/opt/xchem-fragalysis-2/maxwin/BulkDock/SCRATCH/505734/C3214-P158/C3214-P158.minimised.mol

>  <scratch_subdir>  (874) 
/opt/xchem-fragalysis-2/maxwin/BulkDock/SCRATCH/505734/C3214-P158

>  <fragmenstein_runtime>  (874) 
5.947406768798828

>  <fragmenstein_outcome>  (874) 
too moved

>  <fragmenstein_mode>  (874) 
expansion

>  <fragmenstein_error>  (874) 


$$$$
C3748-P130
     RDKit          3D

 53 55  0  0  0  0  0  0  0  0999 V2000
   -0.9540   -1.9166   28.4689 C   0  0  0  0  0  0  0  0  0  0  0  0
   -0.3875   -1.8878   29.8666 N   0  0  0  0  0  0  0  0  0  0  0  0
   -1.2896   -0.6908   29.9788 C   0  0  0  0  0  0  0  0  0  0  0  0
   -0.6971    0.6310   29.5227 C   0  0  0  0  0  0  0  0  0  0  0  0
    0.4656    1.1308   30.1234 C   0  0  0  0  0  0  0  0  0  0  0  0
    0.9957    2.3558   29.7181 C   0  0  0  0  0  0  0  0  0  0  0  0
    0.3742    3.0881   28.7074 C   0  0  0  0  0  0  0  0  0  0  0  0
   -0.7728    2.5943   28.0919 C   0  0  0  0  0  0  0  0  0  0  0  0
   -1.3044    1.3705   28.4947 C   0  0  0  0  0  0  0  0  0  0  0  0
   -0.4871   -3.2057   30.4704 C   0  0  0  0  0  0  0  0  0  0  0  0
   -1.3430   -3.6821   31.1218 O   0  0  0  0  0  0  0  0  0  0  0  0
    0.7808   -3.7605   30.0247 N   0  0  0  0  0  0  0  0  0  0  0  0
    1.3312   -5.0839   30.1621 C   0  0  0  0  0  0  0  0  0  0  0  0
    0.4335   -6.1539   30.7787 C   0  0  0  0  0  0  0  0  0  0  0  0
    0.4829   -6.2587   32.2181 N   0  0  0  0  0  0  0  0  0  0  0  0
    1.5964   -6.2393   33.0017 C   0  0  0  0  0  0  0  0  0  0  0  0
    1.3194   -6.5411   34.2460 N   0  0  0  0  0  0  0  0  0  0  0  0
   -0.0465   -6.6428   34.2952 C   0  0  0  0  0  0  0  0  0  0  0  0
   -0.7534   -6.8158   35.5894 C   0  0  0  0  0  0  0  0  0  0  0  0
   -0.6780   -5.5680   36.4816 C   0  0  0  0  0  0  0  0  0  0  0  0
    0.6154   -5.4286   37.2910 C   0  0  0  0  0  0  0  0  0  0  0  0
    0.8533   -6.5823   38.2087 C   0  0  0  0  0  0  0  0  0  0  0  0
   -0.0760   -6.9034   39.1802 N   0  0  0  0  0  0  0  0  0  0  0  0
    0.3717   -8.0013   39.7467 C   0  0  0  0  0  0  0  0  0  0  0  0
    1.5519   -8.4029   39.1944 N   0  0  0  0  0  0  0  0  0  0  0  0
    1.8946   -7.4824   38.2479 C   0  0  0  0  0  0  0  0  0  0  0  0
    3.6086   -7.5118   37.1136 I   0  0  0  0  0  0  0  0  0  0  0  0
   -0.5782   -6.5311   33.0293 C   0  0  0  0  0  0  0  0  0  0  0  0
   -0.6079   -1.1102   27.8141 H   0  0  0  0  0  0  0  0  0  0  0  0
   -0.5055   -2.8092   28.0156 H   0  0  0  0  0  0  0  0  0  0  0  0
   -2.0283   -2.1408   28.3999 H   0  0  0  0  0  0  0  0  0  0  0  0
   -2.3558   -0.8215   29.7469 H   0  0  0  0  0  0  0  0  0  0  0  0
   -1.3670   -0.5772   31.0737 H   0  0  0  0  0  0  0  0  0  0  0  0
    0.9585    0.5687   30.9137 H   0  0  0  0  0  0  0  0  0  0  0  0
    1.8908    2.7460   30.1955 H   0  0  0  0  0  0  0  0  0  0  0  0
    0.7773    4.0519   28.4063 H   0  0  0  0  0  0  0  0  0  0  0  0
   -1.2663    3.1722   27.3138 H   0  0  0  0  0  0  0  0  0  0  0  0
   -2.1993    1.0062   27.9974 H   0  0  0  0  0  0  0  0  0  0  0  0
    1.3094   -3.0387   29.5479 H   0  0  0  0  0  0  0  0  0  0  0  0
    2.2869   -4.9767   30.6823 H   0  0  0  0  0  0  0  0  0  0  0  0
    1.5787   -5.3890   29.1396 H   0  0  0  0  0  0  0  0  0  0  0  0
   -0.6081   -6.0339   30.4720 H   0  0  0  0  0  0  0  0  0  0  0  0
    0.7475   -7.1380   30.4131 H   0  0  0  0  0  0  0  0  0  0  0  0
    2.5863   -6.0161   32.6337 H   0  0  0  0  0  0  0  0  0  0  0  0
   -1.8066   -7.0156   35.3647 H   0  0  0  0  0  0  0  0  0  0  0  0
   -0.3789   -7.7092   36.0989 H   0  0  0  0  0  0  0  0  0  0  0  0
   -1.5091   -5.5913   37.1907 H   0  0  0  0  0  0  0  0  0  0  0  0
   -0.8194   -4.6629   35.8772 H   0  0  0  0  0  0  0  0  0  0  0  0
    1.4603   -5.2746   36.6140 H   0  0  0  0  0  0  0  0  0  0  0  0
    0.5487   -4.5190   37.9011 H   0  0  0  0  0  0  0  0  0  0  0  0
   -0.1156   -8.5633   40.5323 H   0  0  0  0  0  0  0  0  0  0  0  0
    2.0431   -9.2573   39.4165 H   0  0  0  0  0  0  0  0  0  0  0  0
   -1.5919   -6.5759   32.6651 H   0  0  0  0  0  0  0  0  0  0  0  0
  1  2  1  0
  2  3  1  0
  3  4  1  0
  4  5  2  0
  5  6  1  0
  6  7  2  0
  7  8  1  0
  8  9  2  0
  2 10  1  0
 10 11  2  0
 10 12  1  0
 12 13  1  0
 13 14  1  0
 14 15  1  0
 15 16  1  0
 16 17  2  0
 17 18  1  0
 18 19  1  0
 19 20  1  0
 20 21  1  0
 21 22  1  0
 22 23  1  0
 23 24  2  0
 24 25  1  0
 25 26  1  0
 26 27  1  0
 18 28  2  0
  9  4  1  0
 28 15  1  0
 26 22  2  0
  1 29  1  0
  1 30  1  0
  1 31  1  0
  3 32  1  0
  3 33  1  0
  5 34  1  0
  6 35  1  0
  7 36  1  0
  8 37  1  0
  9 38  1  0
 12 39  1  0
 13 40  1  0
 13 41  1  0
 14 42  1  0
 14 43  1  0
 16 44  1  0
 19 45  1  0
 19 46  1  0
 20 47  1  0
 20 48  1  0
 21 49  1  0
 21 50  1  0
 24 51  1  0
 25 52  1  0
 28 53  1  0
M  END
>  <Energy>  (875) 
25.0612916766447

>  <compound_id>  (875) 
3748

>  <target_id>  (875) 
1

>  <reference_id>  (875) 
130

>  <inspiration_ids>  (875) 
[130, 159]

>  <energy_score>  (875) 
49.836059951318944

>  <distance_score>  (875) 
2.31723282302254

>  <path>  (875) 
/opt/xchem-fragalysis-2/maxwin/BulkDock/SCRATCH/505734/C3748-P130/C3748-P130.minimised.mol

>  <scratch_subdir>  (875) 
/opt/xchem-fragalysis-2/maxwin/BulkDock/SCRATCH/505734/C3748-P130

>  <fragmenstein_runtime>  (875) 
7.853755950927734

>  <fragmenstein_outcome>  (875) 
too moved

>  <fragmenstein_mode>  (875) 
expansion

>  <fragmenstein_error>  (875) 


$$$$
C3748-P159
     RDKit          3D

 53 55  0  0  0  0  0  0  0  0999 V2000
    1.9376   -0.2028   30.3119 C   0  0  0  0  0  0  0  0  0  0  0  0
    0.8055   -1.0305   30.8694 N   0  0  0  0  0  0  0  0  0  0  0  0
    0.0739    0.2907   30.7688 C   0  0  0  0  0  0  0  0  0  0  0  0
   -0.3365    0.9443   29.4592 C   0  0  0  0  0  0  0  0  0  0  0  0
    0.0615    2.2674   29.2012 C   0  0  0  0  0  0  0  0  0  0  0  0
   -0.3856    2.9372   28.0626 C   0  0  0  0  0  0  0  0  0  0  0  0
   -1.2190    2.2893   27.1571 C   0  0  0  0  0  0  0  0  0  0  0  0
   -1.5985    0.9704   27.3869 C   0  0  0  0  0  0  0  0  0  0  0  0
   -1.1732    0.3054   28.5371 C   0  0  0  0  0  0  0  0  0  0  0  0
    0.6556   -2.2572   30.0963 C   0  0  0  0  0  0  0  0  0  0  0  0
   -0.0049   -2.4836   29.1561 O   0  0  0  0  0  0  0  0  0  0  0  0
    1.4886   -3.1336   30.8904 N   0  0  0  0  0  0  0  0  0  0  0  0
    1.8325   -4.5174   30.7136 C   0  0  0  0  0  0  0  0  0  0  0  0
    0.6094   -5.4309   30.5739 C   0  0  0  0  0  0  0  0  0  0  0  0
    0.0638   -5.9258   31.8204 N   0  0  0  0  0  0  0  0  0  0  0  0
   -0.4784   -7.1658   32.0093 C   0  0  0  0  0  0  0  0  0  0  0  0
   -0.8129   -7.3601   33.2648 N   0  0  0  0  0  0  0  0  0  0  0  0
   -0.5141   -6.1811   33.9040 C   0  0  0  0  0  0  0  0  0  0  0  0
   -0.7544   -5.9836   35.3580 C   0  0  0  0  0  0  0  0  0  0  0  0
    0.1503   -6.8428   36.2305 C   0  0  0  0  0  0  0  0  0  0  0  0
    0.2101   -6.2981   37.6617 C   0  0  0  0  0  0  0  0  0  0  0  0
    0.7038   -7.3122   38.6311 C   0  0  0  0  0  0  0  0  0  0  0  0
   -0.1551   -7.8100   39.5868 N   0  0  0  0  0  0  0  0  0  0  0  0
    0.5144   -8.7530   40.2078 C   0  0  0  0  0  0  0  0  0  0  0  0
    1.7881   -8.8535   39.7318 N   0  0  0  0  0  0  0  0  0  0  0  0
    1.9355   -7.9153   38.7515 C   0  0  0  0  0  0  0  0  0  0  0  0
    3.6563   -7.5614   37.6842 I   0  0  0  0  0  0  0  0  0  0  0  0
   -0.0006   -5.2688   33.0093 C   0  0  0  0  0  0  0  0  0  0  0  0
    2.8192   -0.8600   30.3738 H   0  0  0  0  0  0  0  0  0  0  0  0
    2.2535    0.6655   30.9098 H   0  0  0  0  0  0  0  0  0  0  0  0
    1.8693   -0.0202   29.2304 H   0  0  0  0  0  0  0  0  0  0  0  0
   -0.9010    0.0134   31.2047 H   0  0  0  0  0  0  0  0  0  0  0  0
    0.4261    1.0173   31.5224 H   0  0  0  0  0  0  0  0  0  0  0  0
    0.6909    2.8071   29.9048 H   0  0  0  0  0  0  0  0  0  0  0  0
   -0.1079    3.9747   27.8936 H   0  0  0  0  0  0  0  0  0  0  0  0
   -1.5868    2.8155   26.2800 H   0  0  0  0  0  0  0  0  0  0  0  0
   -2.2366    0.4517   26.6750 H   0  0  0  0  0  0  0  0  0  0  0  0
   -1.5208   -0.7122   28.7003 H   0  0  0  0  0  0  0  0  0  0  0  0
    1.9827   -2.5839   31.5812 H   0  0  0  0  0  0  0  0  0  0  0  0
    2.4676   -4.8016   31.5555 H   0  0  0  0  0  0  0  0  0  0  0  0
    2.4222   -4.5676   29.7922 H   0  0  0  0  0  0  0  0  0  0  0  0
   -0.2132   -4.9514   30.0362 H   0  0  0  0  0  0  0  0  0  0  0  0
    0.9119   -6.3162   30.0068 H   0  0  0  0  0  0  0  0  0  0  0  0
   -0.5829   -7.8904   31.2124 H   0  0  0  0  0  0  0  0  0  0  0  0
   -1.7930   -6.2293   35.5866 H   0  0  0  0  0  0  0  0  0  0  0  0
   -0.6159   -4.9228   35.6019 H   0  0  0  0  0  0  0  0  0  0  0  0
    1.1600   -6.8742   35.8054 H   0  0  0  0  0  0  0  0  0  0  0  0
   -0.2199   -7.8767   36.2217 H   0  0  0  0  0  0  0  0  0  0  0  0
    0.8488   -5.4073   37.6959 H   0  0  0  0  0  0  0  0  0  0  0  0
   -0.7888   -5.9721   37.9762 H   0  0  0  0  0  0  0  0  0  0  0  0
    0.1334   -9.4019   40.9856 H   0  0  0  0  0  0  0  0  0  0  0  0
    2.4763   -9.5281   40.0316 H   0  0  0  0  0  0  0  0  0  0  0  0
    0.3167   -4.2433   33.1405 H   0  0  0  0  0  0  0  0  0  0  0  0
  1  2  1  0
  2  3  1  0
  3  4  1  0
  4  5  2  0
  5  6  1  0
  6  7  2  0
  7  8  1  0
  8  9  2  0
  2 10  1  0
 10 11  2  0
 10 12  1  0
 12 13  1  0
 13 14  1  0
 14 15  1  0
 15 16  1  0
 16 17  2  0
 17 18  1  0
 18 19  1  0
 19 20  1  0
 20 21  1  0
 21 22  1  0
 22 23  1  0
 23 24  2  0
 24 25  1  0
 25 26  1  0
 26 27  1  0
 18 28  2  0
  9  4  1  0
 28 15  1  0
 26 22  2  0
  1 29  1  0
  1 30  1  0
  1 31  1  0
  3 32  1  0
  3 33  1  0
  5 34  1  0
  6 35  1  0
  7 36  1  0
  8 37  1  0
  9 38  1  0
 12 39  1  0
 13 40  1  0
 13 41  1  0
 14 42  1  0
 14 43  1  0
 16 44  1  0
 19 45  1  0
 19 46  1  0
 20 47  1  0
 20 48  1  0
 21 49  1  0
 21 50  1  0
 24 51  1  0
 25 52  1  0
 28 53  1  0
M  END
>  <Energy>  (876) 
29.813530633230176

>  <compound_id>  (876) 
3748

>  <target_id>  (876) 
1

>  <reference_id>  (876) 
159

>  <inspiration_ids>  (876) 
[130, 159]

>  <energy_score>  (876) 
54.5882989079045

>  <distance_score>  (876) 
2.3363381880282863

>  <path>  (876) 
/opt/xchem-fragalysis-2/maxwin/BulkDock/SCRATCH/505734/C3748-P159/C3748-P159.minimised.mol

>  <scratch_subdir>  (876) 
/opt/xchem-fragalysis-2/maxwin/BulkDock/SCRATCH/505734/C3748-P159

>  <fragmenstein_runtime>  (876) 
8.513684511184692

>  <fragmenstein_outcome>  (876) 
too moved

>  <fragmenstein_mode>  (876) 
expansion

>  <fragmenstein_error>  (876) 


$$$$
C3749-P130
     RDKit          3D

 69 72  0  0  0  0  0  0  0  0999 V2000
    1.5073   -0.5485   28.5116 C   0  0  0  0  0  0  0  0  0  0  0  0
    0.6013   -1.1265   29.6091 N   0  0  0  0  0  0  0  0  0  0  0  0
   -0.4863   -1.0240   28.4280 C   0  0  0  0  0  0  0  0  0  0  0  0
   -1.0413    0.3767   28.1541 C   0  0  0  0  0  0  0  0  0  0  0  0
   -0.6952    1.5158   28.8955 C   0  0  0  0  0  0  0  0  0  0  0  0
   -1.0888    2.7880   28.4727 C   0  0  0  0  0  0  0  0  0  0  0  0
   -1.9316    2.9341   27.3781 C   0  0  0  0  0  0  0  0  0  0  0  0
   -2.3584    1.8090   26.6863 C   0  0  0  0  0  0  0  0  0  0  0  0
   -1.9012    0.5443   27.0616 C   0  0  0  0  0  0  0  0  0  0  0  0
    0.5699   -2.4349   30.2093 C   0  0  0  0  0  0  0  0  0  0  0  0
    1.1905   -3.4386   29.9404 N   0  0  0  0  0  0  0  0  0  0  0  0
    2.3127   -3.6899   29.0741 C   0  0  0  0  0  0  0  0  0  0  0  0
    3.4260   -4.2653   29.9705 C   0  0  0  0  0  0  0  0  0  0  0  0
    4.5490   -3.2833   30.4067 C   0  0  0  0  0  0  0  0  0  0  0  0
    5.5427   -3.3981   29.3737 O   0  0  0  0  0  0  0  0  0  0  0  0
    5.1848   -3.7337   31.7356 C   0  0  0  0  0  0  0  0  0  0  0  0
    4.3719   -3.2379   32.9405 C   0  0  0  0  0  0  0  0  0  0  0  0
    4.1566   -1.7749   32.9783 N   0  0  0  0  0  0  0  0  0  0  0  0
    2.7373   -1.4843   33.2744 C   0  0  0  0  0  0  0  0  0  0  0  0
    2.4584   -0.0107   33.3936 C   0  0  0  0  0  0  0  0  0  0  0  0
    3.0386    0.8670   34.3671 C   0  0  0  0  0  0  0  0  0  0  0  0
    2.6040    2.1682   34.2396 C   0  0  0  0  0  0  0  0  0  0  0  0
    1.4825    2.3493   32.9661 S   0  0  0  0  0  0  0  0  0  0  0  0
    1.5934    0.6917   32.5735 C   0  0  0  0  0  0  0  0  0  0  0  0
    4.6594   -1.1207   31.7626 C   0  0  0  0  0  0  0  0  0  0  0  0
    4.1528   -1.8032   30.4967 C   0  0  0  0  0  0  0  0  0  0  0  0
   -0.4295   -2.2003   31.1931 N   0  0  0  0  0  0  0  0  0  0  0  0
   -1.0861   -3.0978   32.1130 C   0  0  0  0  0  0  0  0  0  0  0  0
   -0.1738   -4.2059   32.6796 C   0  0  0  0  0  0  0  0  0  0  0  0
   -0.4759   -5.5490   32.2246 N   0  0  0  0  0  0  0  0  0  0  0  0
   -0.9188   -6.5847   32.9927 C   0  0  0  0  0  0  0  0  0  0  0  0
   -1.0540   -7.6582   32.2471 N   0  0  0  0  0  0  0  0  0  0  0  0
   -0.6756   -7.3303   30.9687 N   0  0  0  0  0  0  0  0  0  0  0  0
   -0.3123   -6.0676   30.9778 C   0  0  0  0  0  0  0  0  0  0  0  0
    1.7176   -1.2296   27.6811 H   0  0  0  0  0  0  0  0  0  0  0  0
    2.4774   -0.4075   28.9942 H   0  0  0  0  0  0  0  0  0  0  0  0
    1.3231    0.4640   28.1452 H   0  0  0  0  0  0  0  0  0  0  0  0
   -0.2121   -1.5840   27.5333 H   0  0  0  0  0  0  0  0  0  0  0  0
   -1.3603   -1.5716   28.8131 H   0  0  0  0  0  0  0  0  0  0  0  0
   -0.0594    1.4386   29.7735 H   0  0  0  0  0  0  0  0  0  0  0  0
   -0.7639    3.6727   29.0164 H   0  0  0  0  0  0  0  0  0  0  0  0
   -2.2819    3.9211   27.0847 H   0  0  0  0  0  0  0  0  0  0  0  0
   -3.0476    1.9214   25.8537 H   0  0  0  0  0  0  0  0  0  0  0  0
   -2.2147   -0.3230   26.4837 H   0  0  0  0  0  0  0  0  0  0  0  0
    2.6748   -2.8402   28.5008 H   0  0  0  0  0  0  0  0  0  0  0  0
    2.0128   -4.4529   28.3475 H   0  0  0  0  0  0  0  0  0  0  0  0
    3.8912   -5.0937   29.4181 H   0  0  0  0  0  0  0  0  0  0  0  0
    2.9674   -4.7221   30.8569 H   0  0  0  0  0  0  0  0  0  0  0  0
    6.3065   -2.8497   29.6255 H   0  0  0  0  0  0  0  0  0  0  0  0
    6.2171   -3.3653   31.8108 H   0  0  0  0  0  0  0  0  0  0  0  0
    5.2839   -4.8225   31.7716 H   0  0  0  0  0  0  0  0  0  0  0  0
    4.8989   -3.5207   33.8594 H   0  0  0  0  0  0  0  0  0  0  0  0
    3.4207   -3.7849   32.9595 H   0  0  0  0  0  0  0  0  0  0  0  0
    2.0802   -1.9265   32.5214 H   0  0  0  0  0  0  0  0  0  0  0  0
    2.4716   -1.9459   34.2349 H   0  0  0  0  0  0  0  0  0  0  0  0
    3.7566    0.5514   35.1152 H   0  0  0  0  0  0  0  0  0  0  0  0
    2.8930    3.0220   34.8370 H   0  0  0  0  0  0  0  0  0  0  0  0
    1.0219    0.3065   31.7442 H   0  0  0  0  0  0  0  0  0  0  0  0
    4.4064   -0.0556   31.7347 H   0  0  0  0  0  0  0  0  0  0  0  0
    5.7571   -1.1320   31.7778 H   0  0  0  0  0  0  0  0  0  0  0  0
    4.5172   -1.2486   29.6240 H   0  0  0  0  0  0  0  0  0  0  0  0
    3.0741   -1.7026   30.5217 H   0  0  0  0  0  0  0  0  0  0  0  0
   -0.6692   -1.2156   31.1872 H   0  0  0  0  0  0  0  0  0  0  0  0
   -1.4562   -2.4940   32.9494 H   0  0  0  0  0  0  0  0  0  0  0  0
   -1.9629   -3.5206   31.6157 H   0  0  0  0  0  0  0  0  0  0  0  0
   -0.2927   -4.2213   33.7707 H   0  0  0  0  0  0  0  0  0  0  0  0
    0.8889   -4.0316   32.4890 H   0  0  0  0  0  0  0  0  0  0  0  0
   -1.1318   -6.5155   34.0510 H   0  0  0  0  0  0  0  0  0  0  0  0
    0.0399   -5.5125   30.1227 H   0  0  0  0  0  0  0  0  0  0  0  0
  1  2  1  0
  2  3  1  0
  3  4  1  0
  4  5  2  0
  5  6  1  0
  6  7  2  0
  7  8  1  0
  8  9  2  0
  2 10  1  0
 10 11  2  3
 11 12  1  0
 12 13  1  0
 13 14  1  0
 14 15  1  0
 14 16  1  0
 16 17  1  0
 17 18  1  0
 18 19  1  0
 19 20  1  0
 20 21  1  0
 21 22  2  0
 22 23  1  0
 23 24  1  0
 18 25  1  0
 25 26  1  0
 10 27  1  0
 27 28  1  0
 28 29  1  0
 29 30  1  0
 30 31  1  0
 31 32  2  0
 32 33  1  0
 33 34  2  0
  9  4  1  0
 26 14  1  0
 34 30  1  0
 24 20  2  0
  1 35  1  0
  1 36  1  0
  1 37  1  0
  3 38  1  0
  3 39  1  0
  5 40  1  0
  6 41  1  0
  7 42  1  0
  8 43  1  0
  9 44  1  0
 12 45  1  0
 12 46  1  0
 13 47  1  0
 13 48  1  0
 15 49  1  0
 16 50  1  0
 16 51  1  0
 17 52  1  0
 17 53  1  0
 19 54  1  0
 19 55  1  0
 21 56  1  0
 22 57  1  0
 24 58  1  0
 25 59  1  0
 25 60  1  0
 26 61  1  0
 26 62  1  0
 27 63  1  0
 28 64  1  0
 28 65  1  0
 29 66  1  0
 29 67  1  0
 31 68  1  0
 34 69  1  0
M  END
>  <Energy>  (877) 
19.821683131095018

>  <compound_id>  (877) 
3749

>  <target_id>  (877) 
1

>  <reference_id>  (877) 
130

>  <inspiration_ids>  (877) 
[130, 163]

>  <energy_score>  (877) 
11.518053693809577

>  <distance_score>  (877) 
2.4607462725655136

>  <path>  (877) 
/opt/xchem-fragalysis-2/maxwin/BulkDock/SCRATCH/505734/C3749-P130/C3749-P130.minimised.mol

>  <scratch_subdir>  (877) 
/opt/xchem-fragalysis-2/maxwin/BulkDock/SCRATCH/505734/C3749-P130

>  <fragmenstein_runtime>  (877) 
10.248088598251343

>  <fragmenstein_outcome>  (877) 
too moved

>  <fragmenstein_mode>  (877) 
expansion

>  <fragmenstein_error>  (877) 


$$$$
C3749-P163
     RDKit          3D

 69 72  0  0  0  0  0  0  0  0999 V2000
    1.4833   -0.5962   28.6812 C   0  0  0  0  0  0  0  0  0  0  0  0
    0.5126   -1.2073   29.6822 N   0  0  0  0  0  0  0  0  0  0  0  0
   -0.5162   -0.9756   28.4595 C   0  0  0  0  0  0  0  0  0  0  0  0
   -0.9679    0.4517   28.1536 C   0  0  0  0  0  0  0  0  0  0  0  0
   -0.6146    1.5775   28.9064 C   0  0  0  0  0  0  0  0  0  0  0  0
   -0.9275    2.8639   28.4554 C   0  0  0  0  0  0  0  0  0  0  0  0
   -1.7134    3.0409   27.3233 C   0  0  0  0  0  0  0  0  0  0  0  0
   -2.1551    1.9312   26.6170 C   0  0  0  0  0  0  0  0  0  0  0  0
   -1.7666    0.6520   27.0189 C   0  0  0  0  0  0  0  0  0  0  0  0
    0.4017   -2.5505   30.1821 C   0  0  0  0  0  0  0  0  0  0  0  0
    0.9951   -3.5593   29.8687 N   0  0  0  0  0  0  0  0  0  0  0  0
    2.1260   -3.7702   29.0004 C   0  0  0  0  0  0  0  0  0  0  0  0
    3.2928   -4.1308   29.9326 C   0  0  0  0  0  0  0  0  0  0  0  0
    4.6987   -3.6180   29.5636 C   0  0  0  0  0  0  0  0  0  0  0  0
    5.0987   -4.4257   28.4490 O   0  0  0  0  0  0  0  0  0  0  0  0
    5.6599   -3.8345   30.7396 C   0  0  0  0  0  0  0  0  0  0  0  0
    5.2761   -2.9743   31.9574 C   0  0  0  0  0  0  0  0  0  0  0  0
    4.8164   -1.6092   31.6616 N   0  0  0  0  0  0  0  0  0  0  0  0
    3.4283   -1.3569   32.0786 C   0  0  0  0  0  0  0  0  0  0  0  0
    3.1265    0.1098   32.2715 C   0  0  0  0  0  0  0  0  0  0  0  0
    4.0664    1.1498   32.5797 C   0  0  0  0  0  0  0  0  0  0  0  0
    3.4795    2.3913   32.6884 C   0  0  0  0  0  0  0  0  0  0  0  0
    1.7893    2.3220   32.4687 S   0  0  0  0  0  0  0  0  0  0  0  0
    1.8459    0.6343   32.2168 C   0  0  0  0  0  0  0  0  0  0  0  0
    5.1472   -1.1751   30.3060 C   0  0  0  0  0  0  0  0  0  0  0  0
    4.8359   -2.1451   29.1551 C   0  0  0  0  0  0  0  0  0  0  0  0
   -0.5540   -2.3204   31.2061 N   0  0  0  0  0  0  0  0  0  0  0  0
   -1.1891   -3.2235   32.1295 C   0  0  0  0  0  0  0  0  0  0  0  0
   -0.2297   -4.2791   32.7183 C   0  0  0  0  0  0  0  0  0  0  0  0
   -0.5042   -5.6438   32.3120 N   0  0  0  0  0  0  0  0  0  0  0  0
   -0.9589   -6.6521   33.1082 C   0  0  0  0  0  0  0  0  0  0  0  0
   -1.0808   -7.7506   32.3977 N   0  0  0  0  0  0  0  0  0  0  0  0
   -0.6795   -7.4680   31.1160 N   0  0  0  0  0  0  0  0  0  0  0  0
   -0.3140   -6.2067   31.0884 C   0  0  0  0  0  0  0  0  0  0  0  0
    1.6452   -1.1289   27.7370 H   0  0  0  0  0  0  0  0  0  0  0  0
    1.4402    0.4823   28.5220 H   0  0  0  0  0  0  0  0  0  0  0  0
    2.4404   -0.6662   29.2018 H   0  0  0  0  0  0  0  0  0  0  0  0
   -0.2479   -1.5565   27.5726 H   0  0  0  0  0  0  0  0  0  0  0  0
   -1.4421   -1.4606   28.8064 H   0  0  0  0  0  0  0  0  0  0  0  0
   -0.0423    1.4768   29.8248 H   0  0  0  0  0  0  0  0  0  0  0  0
   -0.5931    3.7365   29.0134 H   0  0  0  0  0  0  0  0  0  0  0  0
   -2.0085    4.0402   27.0115 H   0  0  0  0  0  0  0  0  0  0  0  0
   -2.8023    2.0648   25.7541 H   0  0  0  0  0  0  0  0  0  0  0  0
   -2.0926   -0.2054   26.4325 H   0  0  0  0  0  0  0  0  0  0  0  0
    2.3388   -2.9387   28.3433 H   0  0  0  0  0  0  0  0  0  0  0  0
    1.9166   -4.6189   28.3400 H   0  0  0  0  0  0  0  0  0  0  0  0
    3.3278   -5.2292   29.9706 H   0  0  0  0  0  0  0  0  0  0  0  0
    3.0402   -3.8396   30.9546 H   0  0  0  0  0  0  0  0  0  0  0  0
    6.0409   -4.2561   28.2726 H   0  0  0  0  0  0  0  0  0  0  0  0
    6.6835   -3.5871   30.4243 H   0  0  0  0  0  0  0  0  0  0  0  0
    5.7038   -4.8910   31.0233 H   0  0  0  0  0  0  0  0  0  0  0  0
    6.1642   -2.8907   32.5964 H   0  0  0  0  0  0  0  0  0  0  0  0
    4.5471   -3.5232   32.5666 H   0  0  0  0  0  0  0  0  0  0  0  0
    2.7259   -1.7782   31.3616 H   0  0  0  0  0  0  0  0  0  0  0  0
    3.2346   -1.8341   33.0483 H   0  0  0  0  0  0  0  0  0  0  0  0
    5.1315    0.9884   32.7000 H   0  0  0  0  0  0  0  0  0  0  0  0
    3.9645    3.3348   32.8975 H   0  0  0  0  0  0  0  0  0  0  0  0
    0.9288    0.0953   32.0283 H   0  0  0  0  0  0  0  0  0  0  0  0
    4.7203   -0.1929   30.0722 H   0  0  0  0  0  0  0  0  0  0  0  0
    6.2319   -0.9967   30.2961 H   0  0  0  0  0  0  0  0  0  0  0  0
    5.6638   -2.0542   28.4361 H   0  0  0  0  0  0  0  0  0  0  0  0
    3.9798   -1.8074   28.5792 H   0  0  0  0  0  0  0  0  0  0  0  0
   -0.9006   -1.3720   31.1220 H   0  0  0  0  0  0  0  0  0  0  0  0
   -1.6010   -2.6268   32.9509 H   0  0  0  0  0  0  0  0  0  0  0  0
   -2.0306   -3.6887   31.6154 H   0  0  0  0  0  0  0  0  0  0  0  0
   -0.3248   -4.2608   33.8115 H   0  0  0  0  0  0  0  0  0  0  0  0
    0.8235   -4.0773   32.4962 H   0  0  0  0  0  0  0  0  0  0  0  0
   -1.1925   -6.5460   34.1593 H   0  0  0  0  0  0  0  0  0  0  0  0
    0.0579   -5.6844   30.2221 H   0  0  0  0  0  0  0  0  0  0  0  0
  1  2  1  0
  2  3  1  0
  3  4  1  0
  4  5  2  0
  5  6  1  0
  6  7  2  0
  7  8  1  0
  8  9  2  0
  2 10  1  0
 10 11  2  3
 11 12  1  0
 12 13  1  0
 13 14  1  0
 14 15  1  0
 14 16  1  0
 16 17  1  0
 17 18  1  0
 18 19  1  0
 19 20  1  0
 20 21  1  0
 21 22  2  0
 22 23  1  0
 23 24  1  0
 18 25  1  0
 25 26  1  0
 10 27  1  0
 27 28  1  0
 28 29  1  0
 29 30  1  0
 30 31  1  0
 31 32  2  0
 32 33  1  0
 33 34  2  0
  9  4  1  0
 26 14  1  0
 34 30  1  0
 24 20  2  0
  1 35  1  0
  1 36  1  0
  1 37  1  0
  3 38  1  0
  3 39  1  0
  5 40  1  0
  6 41  1  0
  7 42  1  0
  8 43  1  0
  9 44  1  0
 12 45  1  0
 12 46  1  0
 13 47  1  0
 13 48  1  0
 15 49  1  0
 16 50  1  0
 16 51  1  0
 17 52  1  0
 17 53  1  0
 19 54  1  0
 19 55  1  0
 21 56  1  0
 22 57  1  0
 24 58  1  0
 25 59  1  0
 25 60  1  0
 26 61  1  0
 26 62  1  0
 27 63  1  0
 28 64  1  0
 28 65  1  0
 29 66  1  0
 29 67  1  0
 31 68  1  0
 34 69  1  0
M  END
>  <Energy>  (878) 
24.708706837883348

>  <compound_id>  (878) 
3749

>  <target_id>  (878) 
1

>  <reference_id>  (878) 
163

>  <inspiration_ids>  (878) 
[130, 163]

>  <energy_score>  (878) 
16.40507740059769

>  <distance_score>  (878) 
2.4666195913047115

>  <path>  (878) 
/opt/xchem-fragalysis-2/maxwin/BulkDock/SCRATCH/505734/C3749-P163/C3749-P163.minimised.mol

>  <scratch_subdir>  (878) 
/opt/xchem-fragalysis-2/maxwin/BulkDock/SCRATCH/505734/C3749-P163

>  <fragmenstein_runtime>  (878) 
13.194725513458252

>  <fragmenstein_outcome>  (878) 
too moved

>  <fragmenstein_mode>  (878) 
expansion

>  <fragmenstein_error>  (878) 


$$$$
C3669-P130
     RDKit          3D

 61 64  0  0  0  0  0  0  0  0999 V2000
   -4.2661   -2.2000   40.0525 C   0  0  0  0  0  0  0  0  0  0  0  0
   -3.0262   -2.8827   40.2718 N   0  0  0  0  0  0  0  0  0  0  0  0
   -1.8208   -2.4596   40.9311 C   0  0  0  0  0  0  0  0  0  0  0  0
   -1.5154   -1.3993   41.3978 O   0  0  0  0  0  0  0  0  0  0  0  0
   -0.8141   -3.6146   40.9963 C   0  0  0  0  0  0  0  0  0  0  0  0
   -0.1673   -3.8985   39.6620 C   0  0  0  0  0  0  0  0  0  0  0  0
   -0.5014   -5.0509   38.9508 C   0  0  0  0  0  0  0  0  0  0  0  0
    0.0350   -5.2696   37.6855 C   0  0  0  0  0  0  0  0  0  0  0  0
    0.9155   -4.3391   37.1079 C   0  0  0  0  0  0  0  0  0  0  0  0
    1.4204   -4.6223   35.7533 C   0  0  0  0  0  0  0  0  0  0  0  0
    2.7339   -5.2349   35.5426 C   0  0  0  0  0  0  0  0  0  0  0  0
    3.1099   -5.7067   34.3411 C   0  0  0  0  0  0  0  0  0  0  0  0
    2.1606   -5.7398   33.2896 C   0  0  0  0  0  0  0  0  0  0  0  0
    2.2005   -6.1863   32.0569 N   0  0  0  0  0  0  0  0  0  0  0  0
    0.9159   -6.2501   31.5881 N   0  0  0  0  0  0  0  0  0  0  0  0
    0.1293   -5.7855   32.5301 C   0  0  0  0  0  0  0  0  0  0  0  0
   -1.2015   -5.9555   32.6100 N   0  0  0  0  0  0  0  0  0  0  0  0
    0.9020   -5.2256   33.5390 N   0  0  0  0  0  0  0  0  0  0  0  0
    0.5887   -4.4811   34.6865 C   0  0  0  0  0  0  0  0  0  0  0  0
   -0.6009   -3.5610   34.6609 C   0  0  0  0  0  0  0  0  0  0  0  0
   -0.6131   -2.7977   33.4216 N   0  0  0  0  0  0  0  0  0  0  0  0
   -1.5184   -2.8506   32.2756 C   0  0  0  0  0  0  0  0  0  0  0  0
   -2.5026   -3.4701   32.1119 O   0  0  0  0  0  0  0  0  0  0  0  0
   -0.8593   -1.8860   31.4042 N   0  0  0  0  0  0  0  0  0  0  0  0
    0.1495   -2.5887   30.5190 C   0  0  0  0  0  0  0  0  0  0  0  0
   -1.2932   -1.3048   30.0819 C   0  0  0  0  0  0  0  0  0  0  0  0
   -0.6688   -0.0002   29.6271 C   0  0  0  0  0  0  0  0  0  0  0  0
    0.0869    0.8122   30.4826 C   0  0  0  0  0  0  0  0  0  0  0  0
    0.5782    2.0405   30.0370 C   0  0  0  0  0  0  0  0  0  0  0  0
    0.2975    2.4798   28.7442 C   0  0  0  0  0  0  0  0  0  0  0  0
   -0.4620    1.6864   27.8884 C   0  0  0  0  0  0  0  0  0  0  0  0
   -0.9368    0.4497   28.3230 C   0  0  0  0  0  0  0  0  0  0  0  0
    1.2938   -3.2155   37.8358 C   0  0  0  0  0  0  0  0  0  0  0  0
    0.7479   -2.9944   39.1036 C   0  0  0  0  0  0  0  0  0  0  0  0
   -5.0229   -2.6382   40.7072 H   0  0  0  0  0  0  0  0  0  0  0  0
   -4.5595   -2.3360   39.0094 H   0  0  0  0  0  0  0  0  0  0  0  0
   -4.1495   -1.1380   40.2798 H   0  0  0  0  0  0  0  0  0  0  0  0
   -2.9669   -3.8809   40.0798 H   0  0  0  0  0  0  0  0  0  0  0  0
   -0.0368   -3.3618   41.7284 H   0  0  0  0  0  0  0  0  0  0  0  0
   -1.3163   -4.5056   41.3933 H   0  0  0  0  0  0  0  0  0  0  0  0
   -1.1889   -5.7779   39.3717 H   0  0  0  0  0  0  0  0  0  0  0  0
   -0.2449   -6.1721   37.1448 H   0  0  0  0  0  0  0  0  0  0  0  0
    3.4274   -5.2438   36.3802 H   0  0  0  0  0  0  0  0  0  0  0  0
    4.1022   -6.1098   34.1809 H   0  0  0  0  0  0  0  0  0  0  0  0
   -1.7773   -5.2537   33.0779 H   0  0  0  0  0  0  0  0  0  0  0  0
   -1.6516   -6.2611   31.7542 H   0  0  0  0  0  0  0  0  0  0  0  0
   -0.5606   -2.8137   35.4590 H   0  0  0  0  0  0  0  0  0  0  0  0
   -1.5127   -4.1242   34.7848 H   0  0  0  0  0  0  0  0  0  0  0  0
    0.0932   -2.0927   33.2539 H   0  0  0  0  0  0  0  0  0  0  0  0
   -0.2880   -3.4200   29.9435 H   0  0  0  0  0  0  0  0  0  0  0  0
    0.8252   -1.9498   29.9339 H   0  0  0  0  0  0  0  0  0  0  0  0
    0.8352   -3.0974   31.2115 H   0  0  0  0  0  0  0  0  0  0  0  0
   -2.3158   -0.9874   30.3418 H   0  0  0  0  0  0  0  0  0  0  0  0
   -1.5139   -2.0164   29.2652 H   0  0  0  0  0  0  0  0  0  0  0  0
    0.2888    0.5011   31.5041 H   0  0  0  0  0  0  0  0  0  0  0  0
    1.1604    2.6700   30.7049 H   0  0  0  0  0  0  0  0  0  0  0  0
    0.6560    3.4501   28.4096 H   0  0  0  0  0  0  0  0  0  0  0  0
   -0.6991    2.0380   26.8881 H   0  0  0  0  0  0  0  0  0  0  0  0
   -1.5356   -0.1546   27.6408 H   0  0  0  0  0  0  0  0  0  0  0  0
    1.9899   -2.4917   37.4197 H   0  0  0  0  0  0  0  0  0  0  0  0
    1.0239   -2.0931   39.6505 H   0  0  0  0  0  0  0  0  0  0  0  0
  1  2  1  0
  2  3  1  0
  3  4  2  0
  3  5  1  0
  5  6  1  0
  6  7  2  0
  7  8  1  0
  8  9  2  0
  9 10  1  0
 10 11  1  0
 11 12  2  0
 12 13  1  0
 13 14  2  0
 14 15  1  0
 15 16  2  0
 16 17  1  0
 16 18  1  0
 18 19  1  0
 19 20  1  0
 20 21  1  0
 21 22  1  0
 22 23  2  0
 22 24  1  0
 24 25  1  0
 24 26  1  0
 26 27  1  0
 27 28  2  0
 28 29  1  0
 29 30  2  0
 30 31  1  0
 31 32  2  0
  9 33  1  0
 33 34  2  0
 34  6  1  0
 19 10  2  0
 32 27  1  0
 18 13  1  0
  1 35  1  0
  1 36  1  0
  1 37  1  0
  2 38  1  0
  5 39  1  0
  5 40  1  0
  7 41  1  0
  8 42  1  0
 11 43  1  0
 12 44  1  0
 17 45  1  0
 17 46  1  0
 20 47  1  0
 20 48  1  0
 21 49  1  0
 25 50  1  0
 25 51  1  0
 25 52  1  0
 26 53  1  0
 26 54  1  0
 28 55  1  0
 29 56  1  0
 30 57  1  0
 31 58  1  0
 32 59  1  0
 33 60  1  0
 34 61  1  0
M  END
>  <Energy>  (879) 
66.175294921909185

>  <compound_id>  (879) 
3669

>  <target_id>  (879) 
1

>  <reference_id>  (879) 
130

>  <inspiration_ids>  (879) 
[130, 164]

>  <energy_score>  (879) 
31.31745156905871

>  <distance_score>  (879) 
3.0576397717681303

>  <path>  (879) 
/opt/xchem-fragalysis-2/maxwin/BulkDock/SCRATCH/505734/C3669-P130/C3669-P130.minimised.mol

>  <scratch_subdir>  (879) 
/opt/xchem-fragalysis-2/maxwin/BulkDock/SCRATCH/505734/C3669-P130

>  <fragmenstein_runtime>  (879) 
14.868754863739014

>  <fragmenstein_outcome>  (879) 
too moved

>  <fragmenstein_mode>  (879) 
expansion

>  <fragmenstein_error>  (879) 


$$$$
C3669-P164
     RDKit          3D

 61 64  0  0  0  0  0  0  0  0999 V2000
   -2.4678   -0.8552   40.9322 C   0  0  0  0  0  0  0  0  0  0  0  0
   -1.4097   -1.8157   41.0462 N   0  0  0  0  0  0  0  0  0  0  0  0
   -1.3525   -3.0773   41.7310 C   0  0  0  0  0  0  0  0  0  0  0  0
   -2.1472   -3.6143   42.4479 O   0  0  0  0  0  0  0  0  0  0  0  0
    0.0129   -3.7411   41.5083 C   0  0  0  0  0  0  0  0  0  0  0  0
    0.3731   -3.9800   40.0582 C   0  0  0  0  0  0  0  0  0  0  0  0
   -0.4513   -4.7560   39.2388 C   0  0  0  0  0  0  0  0  0  0  0  0
   -0.0986   -4.9893   37.9087 C   0  0  0  0  0  0  0  0  0  0  0  0
    1.0750   -4.4390   37.3646 C   0  0  0  0  0  0  0  0  0  0  0  0
    1.4882   -4.8085   35.9908 C   0  0  0  0  0  0  0  0  0  0  0  0
    2.7733   -5.4865   35.7598 C   0  0  0  0  0  0  0  0  0  0  0  0
    3.1345   -5.9466   34.5502 C   0  0  0  0  0  0  0  0  0  0  0  0
    2.1885   -5.9187   33.4991 C   0  0  0  0  0  0  0  0  0  0  0  0
    2.2155   -6.3229   32.2515 N   0  0  0  0  0  0  0  0  0  0  0  0
    0.9232   -6.3582   31.7954 N   0  0  0  0  0  0  0  0  0  0  0  0
    0.1535   -5.9113   32.7601 C   0  0  0  0  0  0  0  0  0  0  0  0
   -1.1783   -6.0701   32.8638 N   0  0  0  0  0  0  0  0  0  0  0  0
    0.9452   -5.3808   33.7690 N   0  0  0  0  0  0  0  0  0  0  0  0
    0.6591   -4.6350   34.9247 C   0  0  0  0  0  0  0  0  0  0  0  0
   -0.4825   -3.6534   34.8874 C   0  0  0  0  0  0  0  0  0  0  0  0
   -0.4491   -2.8919   33.6456 N   0  0  0  0  0  0  0  0  0  0  0  0
   -1.3106   -2.9495   32.4652 C   0  0  0  0  0  0  0  0  0  0  0  0
   -2.2860   -3.5717   32.2659 O   0  0  0  0  0  0  0  0  0  0  0  0
   -0.6216   -1.9848   31.6167 N   0  0  0  0  0  0  0  0  0  0  0  0
    0.4213   -2.6865   30.7720 C   0  0  0  0  0  0  0  0  0  0  0  0
   -1.0071   -1.4082   30.2777 C   0  0  0  0  0  0  0  0  0  0  0  0
   -0.3831   -0.1019   29.8303 C   0  0  0  0  0  0  0  0  0  0  0  0
    0.3697    0.7103   30.6870 C   0  0  0  0  0  0  0  0  0  0  0  0
    0.8583    1.9404   30.2426 C   0  0  0  0  0  0  0  0  0  0  0  0
    0.5753    2.3829   28.9510 C   0  0  0  0  0  0  0  0  0  0  0  0
   -0.1824    1.5901   28.0939 C   0  0  0  0  0  0  0  0  0  0  0  0
   -0.6521    0.3509   28.5265 C   0  0  0  0  0  0  0  0  0  0  0  0
    1.9006   -3.6730   38.1888 C   0  0  0  0  0  0  0  0  0  0  0  0
    1.5553   -3.4499   39.5243 C   0  0  0  0  0  0  0  0  0  0  0  0
   -2.0516    0.1432   41.0821 H   0  0  0  0  0  0  0  0  0  0  0  0
   -3.2381   -1.0640   41.6780 H   0  0  0  0  0  0  0  0  0  0  0  0
   -2.8952   -0.9300   39.9296 H   0  0  0  0  0  0  0  0  0  0  0  0
   -0.5888   -1.7209   40.4595 H   0  0  0  0  0  0  0  0  0  0  0  0
    0.0218   -4.7073   42.0283 H   0  0  0  0  0  0  0  0  0  0  0  0
    0.7667   -3.1142   42.0009 H   0  0  0  0  0  0  0  0  0  0  0  0
   -1.3657   -5.1982   39.6348 H   0  0  0  0  0  0  0  0  0  0  0  0
   -0.7394   -5.6337   37.3093 H   0  0  0  0  0  0  0  0  0  0  0  0
    3.4671   -5.5584   36.5943 H   0  0  0  0  0  0  0  0  0  0  0  0
    4.1076   -6.3918   34.3866 H   0  0  0  0  0  0  0  0  0  0  0  0
   -1.7271   -5.3345   33.3130 H   0  0  0  0  0  0  0  0  0  0  0  0
   -1.6393   -6.3706   32.0115 H   0  0  0  0  0  0  0  0  0  0  0  0
   -0.4070   -2.9090   35.6861 H   0  0  0  0  0  0  0  0  0  0  0  0
   -1.4268   -4.1674   35.0014 H   0  0  0  0  0  0  0  0  0  0  0  0
    0.2612   -2.1855   33.5035 H   0  0  0  0  0  0  0  0  0  0  0  0
    1.0809   -3.1936   31.4908 H   0  0  0  0  0  0  0  0  0  0  0  0
    0.0081   -3.5191   30.1808 H   0  0  0  0  0  0  0  0  0  0  0  0
    1.1169   -2.0461   30.2125 H   0  0  0  0  0  0  0  0  0  0  0  0
   -2.0383   -1.0945   30.5053 H   0  0  0  0  0  0  0  0  0  0  0  0
   -1.2011   -2.1247   29.4584 H   0  0  0  0  0  0  0  0  0  0  0  0
    0.5726    0.3975   31.7078 H   0  0  0  0  0  0  0  0  0  0  0  0
    1.4404    2.5698   30.9109 H   0  0  0  0  0  0  0  0  0  0  0  0
    0.9313    3.3550   28.6186 H   0  0  0  0  0  0  0  0  0  0  0  0
   -0.4215    1.9428   27.0945 H   0  0  0  0  0  0  0  0  0  0  0  0
   -1.2495   -0.2532   27.8425 H   0  0  0  0  0  0  0  0  0  0  0  0
    2.8308   -3.2574   37.8079 H   0  0  0  0  0  0  0  0  0  0  0  0
    2.2267   -2.8630   40.1488 H   0  0  0  0  0  0  0  0  0  0  0  0
  1  2  1  0
  2  3  1  0
  3  4  2  0
  3  5  1  0
  5  6  1  0
  6  7  2  0
  7  8  1  0
  8  9  2  0
  9 10  1  0
 10 11  1  0
 11 12  2  0
 12 13  1  0
 13 14  2  0
 14 15  1  0
 15 16  2  0
 16 17  1  0
 16 18  1  0
 18 19  1  0
 19 20  1  0
 20 21  1  0
 21 22  1  0
 22 23  2  0
 22 24  1  0
 24 25  1  0
 24 26  1  0
 26 27  1  0
 27 28  2  0
 28 29  1  0
 29 30  2  0
 30 31  1  0
 31 32  2  0
  9 33  1  0
 33 34  2  0
 34  6  1  0
 19 10  2  0
 32 27  1  0
 18 13  1  0
  1 35  1  0
  1 36  1  0
  1 37  1  0
  2 38  1  0
  5 39  1  0
  5 40  1  0
  7 41  1  0
  8 42  1  0
 11 43  1  0
 12 44  1  0
 17 45  1  0
 17 46  1  0
 20 47  1  0
 20 48  1  0
 21 49  1  0
 25 50  1  0
 25 51  1  0
 25 52  1  0
 26 53  1  0
 26 54  1  0
 28 55  1  0
 29 56  1  0
 30 57  1  0
 31 58  1  0
 32 59  1  0
 33 60  1  0
 34 61  1  0
M  END
>  <Energy>  (880) 
66.548388306978353

>  <compound_id>  (880) 
3669

>  <target_id>  (880) 
1

>  <reference_id>  (880) 
164

>  <inspiration_ids>  (880) 
[130, 164]

>  <energy_score>  (880) 
31.690544954127873

>  <distance_score>  (880) 
3.137501458181905

>  <path>  (880) 
/opt/xchem-fragalysis-2/maxwin/BulkDock/SCRATCH/505734/C3669-P164/C3669-P164.minimised.mol

>  <scratch_subdir>  (880) 
/opt/xchem-fragalysis-2/maxwin/BulkDock/SCRATCH/505734/C3669-P164

>  <fragmenstein_runtime>  (880) 
15.18974757194519

>  <fragmenstein_outcome>  (880) 
too moved

>  <fragmenstein_mode>  (880) 
expansion

>  <fragmenstein_error>  (880) 


$$$$
C3707-P130
     RDKit          3D

 59 62  0  0  0  0  0  0  0  0999 V2000
   -0.1560   -2.2980   30.1228 C   0  0  0  0  0  0  0  0  0  0  0  0
   -1.0033   -1.7937   31.2762 N   0  0  0  0  0  0  0  0  0  0  0  0
   -1.5905   -0.9324   30.1878 C   0  0  0  0  0  0  0  0  0  0  0  0
   -0.8571    0.3313   29.7770 C   0  0  0  0  0  0  0  0  0  0  0  0
    0.0131    0.9980   30.6501 C   0  0  0  0  0  0  0  0  0  0  0  0
    0.6607    2.1641   30.2414 C   0  0  0  0  0  0  0  0  0  0  0  0
    0.4240    2.6870   28.9703 C   0  0  0  0  0  0  0  0  0  0  0  0
   -0.4502    2.0398   28.0995 C   0  0  0  0  0  0  0  0  0  0  0  0
   -1.0842    0.8639   28.4973 C   0  0  0  0  0  0  0  0  0  0  0  0
   -1.5767   -2.9221   32.0063 C   0  0  0  0  0  0  0  0  0  0  0  0
   -2.5980   -3.4797   31.8566 O   0  0  0  0  0  0  0  0  0  0  0  0
   -0.4693   -3.2080   32.9053 N   0  0  0  0  0  0  0  0  0  0  0  0
   -0.2463   -4.3196   33.8174 C   0  0  0  0  0  0  0  0  0  0  0  0
    0.5363   -5.2898   32.9568 C   0  0  0  0  0  0  0  0  0  0  0  0
    1.7819   -4.9731   32.5107 C   0  0  0  0  0  0  0  0  0  0  0  0
    2.6919   -4.1542   33.3323 C   0  0  0  0  0  0  0  0  0  0  0  0
    3.2316   -4.7067   34.5062 C   0  0  0  0  0  0  0  0  0  0  0  0
    4.0808   -3.9548   35.3171 C   0  0  0  0  0  0  0  0  0  0  0  0
    4.3879   -2.6422   34.9651 C   0  0  0  0  0  0  0  0  0  0  0  0
    3.8635   -2.0961   33.7943 C   0  0  0  0  0  0  0  0  0  0  0  0
    4.1274   -0.7287   33.4906 N   0  0  0  0  0  0  0  0  0  0  0  0
    2.8975    0.3800   33.8657 S   0  0  0  0  0  0  0  0  0  0  0  0
    3.3807    0.9029   35.4965 C   0  0  0  0  0  0  0  0  0  0  0  0
    1.6249   -0.3047   33.9337 O   0  0  0  0  0  0  0  0  0  0  0  0
    3.0986    1.4937   32.9640 O   0  0  0  0  0  0  0  0  0  0  0  0
    3.0305   -2.8499   32.9680 C   0  0  0  0  0  0  0  0  0  0  0  0
    2.1018   -5.3454   31.1323 C   0  0  0  0  0  0  0  0  0  0  0  0
    1.2695   -6.0810   30.3731 C   0  0  0  0  0  0  0  0  0  0  0  0
    0.1380   -6.6835   30.9730 C   0  0  0  0  0  0  0  0  0  0  0  0
   -0.6936   -7.6177   30.5704 N   0  0  0  0  0  0  0  0  0  0  0  0
   -1.4712   -7.9645   31.6496 N   0  0  0  0  0  0  0  0  0  0  0  0
   -1.1100   -7.2254   32.6787 C   0  0  0  0  0  0  0  0  0  0  0  0
   -1.4243   -7.4486   33.9785 N   0  0  0  0  0  0  0  0  0  0  0  0
   -0.1779   -6.2849   32.2619 N   0  0  0  0  0  0  0  0  0  0  0  0
    0.5217   -1.5782   29.6485 H   0  0  0  0  0  0  0  0  0  0  0  0
    0.5480   -3.0091   30.5698 H   0  0  0  0  0  0  0  0  0  0  0  0
   -0.7107   -2.9294   29.4103 H   0  0  0  0  0  0  0  0  0  0  0  0
   -2.4891   -0.5418   30.6919 H   0  0  0  0  0  0  0  0  0  0  0  0
   -2.0465   -1.4838   29.3475 H   0  0  0  0  0  0  0  0  0  0  0  0
    0.1913    0.6139   31.6523 H   0  0  0  0  0  0  0  0  0  0  0  0
    1.3378    2.6751   30.9222 H   0  0  0  0  0  0  0  0  0  0  0  0
    0.9087    3.6110   28.6656 H   0  0  0  0  0  0  0  0  0  0  0  0
   -0.6495    2.4589   27.1169 H   0  0  0  0  0  0  0  0  0  0  0  0
   -1.7638    0.3704   27.8036 H   0  0  0  0  0  0  0  0  0  0  0  0
    0.2202   -2.4690   32.8278 H   0  0  0  0  0  0  0  0  0  0  0  0
   -1.2026   -4.7230   34.1358 H   0  0  0  0  0  0  0  0  0  0  0  0
    0.3059   -3.9638   34.6903 H   0  0  0  0  0  0  0  0  0  0  0  0
    2.9901   -5.7260   34.7998 H   0  0  0  0  0  0  0  0  0  0  0  0
    4.4916   -4.3850   36.2274 H   0  0  0  0  0  0  0  0  0  0  0  0
    5.0369   -2.0509   35.6055 H   0  0  0  0  0  0  0  0  0  0  0  0
    4.4474   -0.5455   32.5366 H   0  0  0  0  0  0  0  0  0  0  0  0
    3.3129    0.0545   36.1790 H   0  0  0  0  0  0  0  0  0  0  0  0
    2.6912    1.6882   35.8143 H   0  0  0  0  0  0  0  0  0  0  0  0
    4.3977    1.2973   35.4565 H   0  0  0  0  0  0  0  0  0  0  0  0
    2.6104   -2.4042   32.0702 H   0  0  0  0  0  0  0  0  0  0  0  0
    2.9956   -4.9133   30.6891 H   0  0  0  0  0  0  0  0  0  0  0  0
    1.4915   -6.2895   29.3352 H   0  0  0  0  0  0  0  0  0  0  0  0
   -0.8054   -7.1040   34.7031 H   0  0  0  0  0  0  0  0  0  0  0  0
   -1.6965   -8.4199   34.1644 H   0  0  0  0  0  0  0  0  0  0  0  0
  1  2  1  0
  2  3  1  0
  3  4  1  0
  4  5  2  0
  5  6  1  0
  6  7  2  0
  7  8  1  0
  8  9  2  0
  2 10  1  0
 10 11  2  0
 10 12  1  0
 12 13  1  0
 13 14  1  0
 14 15  2  0
 15 16  1  0
 16 17  2  0
 17 18  1  0
 18 19  2  0
 19 20  1  0
 20 21  1  0
 21 22  1  0
 22 23  1  0
 22 24  2  0
 22 25  2  0
 20 26  2  0
 15 27  1  0
 27 28  2  0
 28 29  1  0
 29 30  2  0
 30 31  1  0
 31 32  2  0
 32 33  1  0
 32 34  1  0
  9  4  1  0
 34 14  1  0
 26 16  1  0
 34 29  1  0
  1 35  1  0
  1 36  1  0
  1 37  1  0
  3 38  1  0
  3 39  1  0
  5 40  1  0
  6 41  1  0
  7 42  1  0
  8 43  1  0
  9 44  1  0
 12 45  1  0
 13 46  1  0
 13 47  1  0
 17 48  1  0
 18 49  1  0
 19 50  1  0
 21 51  1  0
 23 52  1  0
 23 53  1  0
 23 54  1  0
 26 55  1  0
 27 56  1  0
 28 57  1  0
 33 58  1  0
 33 59  1  0
M  END
>  <Energy>  (881) 
15.025138191644487

>  <compound_id>  (881) 
3707

>  <target_id>  (881) 
1

>  <reference_id>  (881) 
130

>  <inspiration_ids>  (881) 
[130, 165]

>  <energy_score>  (881) 
22.93004201746944

>  <distance_score>  (881) 
1.8799872010945253

>  <path>  (881) 
/opt/xchem-fragalysis-2/maxwin/BulkDock/SCRATCH/505734/C3707-P130/C3707-P130.minimised.mol

>  <scratch_subdir>  (881) 
/opt/xchem-fragalysis-2/maxwin/BulkDock/SCRATCH/505734/C3707-P130

>  <fragmenstein_runtime>  (881) 
12.423663854598999

>  <fragmenstein_outcome>  (881) 
too moved

>  <fragmenstein_mode>  (881) 
expansion

>  <fragmenstein_error>  (881) 


$$$$
C3707-P165
     RDKit          3D

 59 62  0  0  0  0  0  0  0  0999 V2000
    0.0760   -2.7131   28.8997 C   0  0  0  0  0  0  0  0  0  0  0  0
   -0.0735   -2.3348   30.3579 N   0  0  0  0  0  0  0  0  0  0  0  0
   -1.0693   -1.3578   29.7797 C   0  0  0  0  0  0  0  0  0  0  0  0
   -0.5327   -0.0085   29.3441 C   0  0  0  0  0  0  0  0  0  0  0  0
    0.3834    0.6976   30.1342 C   0  0  0  0  0  0  0  0  0  0  0  0
    0.8212    1.9631   29.7415 C   0  0  0  0  0  0  0  0  0  0  0  0
    0.3385    2.5371   28.5656 C   0  0  0  0  0  0  0  0  0  0  0  0
   -0.5706    1.8422   27.7716 C   0  0  0  0  0  0  0  0  0  0  0  0
   -0.9981    0.5715   28.1533 C   0  0  0  0  0  0  0  0  0  0  0  0
   -0.2803   -3.5301   31.1667 C   0  0  0  0  0  0  0  0  0  0  0  0
   -1.2747   -4.0663   31.4872 O   0  0  0  0  0  0  0  0  0  0  0  0
    1.1106   -3.9128   31.3786 N   0  0  0  0  0  0  0  0  0  0  0  0
    1.6875   -5.1083   31.9587 C   0  0  0  0  0  0  0  0  0  0  0  0
    0.8149   -5.7954   32.9749 C   0  0  0  0  0  0  0  0  0  0  0  0
    0.9849   -5.6656   34.3221 C   0  0  0  0  0  0  0  0  0  0  0  0
    2.0612   -4.8182   34.8710 C   0  0  0  0  0  0  0  0  0  0  0  0
    3.2199   -5.4193   35.3832 C   0  0  0  0  0  0  0  0  0  0  0  0
    4.2638   -4.6328   35.8687 C   0  0  0  0  0  0  0  0  0  0  0  0
    4.1548   -3.2426   35.8442 C   0  0  0  0  0  0  0  0  0  0  0  0
    3.0026   -2.6423   35.3353 C   0  0  0  0  0  0  0  0  0  0  0  0
    2.8706   -1.2213   35.3552 N   0  0  0  0  0  0  0  0  0  0  0  0
    2.3774   -0.5204   36.8208 S   0  0  0  0  0  0  0  0  0  0  0  0
    3.8890    0.2570   37.3442 C   0  0  0  0  0  0  0  0  0  0  0  0
    2.0210   -1.5422   37.7779 O   0  0  0  0  0  0  0  0  0  0  0  0
    1.4520    0.5284   36.4468 O   0  0  0  0  0  0  0  0  0  0  0  0
    1.9471   -3.4237   34.8663 C   0  0  0  0  0  0  0  0  0  0  0  0
    0.1281   -6.4403   35.2246 C   0  0  0  0  0  0  0  0  0  0  0  0
   -0.7895   -7.3092   34.7730 C   0  0  0  0  0  0  0  0  0  0  0  0
   -0.9564   -7.4794   33.3793 C   0  0  0  0  0  0  0  0  0  0  0  0
   -1.7401   -8.2759   32.6896 N   0  0  0  0  0  0  0  0  0  0  0  0
   -1.4821   -8.0860   31.3661 N   0  0  0  0  0  0  0  0  0  0  0  0
   -0.5641   -7.1559   31.2654 C   0  0  0  0  0  0  0  0  0  0  0  0
   -0.1274   -6.6464   30.0924 N   0  0  0  0  0  0  0  0  0  0  0  0
   -0.1639   -6.7221   32.5250 N   0  0  0  0  0  0  0  0  0  0  0  0
    0.8880   -3.4552   28.8698 H   0  0  0  0  0  0  0  0  0  0  0  0
   -0.7779   -3.2830   28.5085 H   0  0  0  0  0  0  0  0  0  0  0  0
    0.4508   -1.9280   28.2316 H   0  0  0  0  0  0  0  0  0  0  0  0
   -1.6780   -1.1150   30.6671 H   0  0  0  0  0  0  0  0  0  0  0  0
   -1.8541   -1.7712   29.1241 H   0  0  0  0  0  0  0  0  0  0  0  0
    0.7484    0.2695   31.0643 H   0  0  0  0  0  0  0  0  0  0  0  0
    1.5226    2.5153   30.3615 H   0  0  0  0  0  0  0  0  0  0  0  0
    0.6573    3.5356   28.2764 H   0  0  0  0  0  0  0  0  0  0  0  0
   -0.9615    2.2971   26.8648 H   0  0  0  0  0  0  0  0  0  0  0  0
   -1.7057    0.0412   27.5172 H   0  0  0  0  0  0  0  0  0  0  0  0
    1.7135   -3.1729   31.0398 H   0  0  0  0  0  0  0  0  0  0  0  0
    2.6496   -4.7997   32.3801 H   0  0  0  0  0  0  0  0  0  0  0  0
    1.9696   -5.7786   31.1422 H   0  0  0  0  0  0  0  0  0  0  0  0
    3.3137   -6.5026   35.4100 H   0  0  0  0  0  0  0  0  0  0  0  0
    5.1578   -5.1008   36.2732 H   0  0  0  0  0  0  0  0  0  0  0  0
    4.9706   -2.6363   36.2258 H   0  0  0  0  0  0  0  0  0  0  0  0
    2.2791   -0.8383   34.6140 H   0  0  0  0  0  0  0  0  0  0  0  0
    4.6372   -0.5117   37.5428 H   0  0  0  0  0  0  0  0  0  0  0  0
    3.6799    0.8138   38.2603 H   0  0  0  0  0  0  0  0  0  0  0  0
    4.2255    0.9421   36.5639 H   0  0  0  0  0  0  0  0  0  0  0  0
    1.0356   -2.9583   34.4982 H   0  0  0  0  0  0  0  0  0  0  0  0
    0.2622   -6.3068   36.2957 H   0  0  0  0  0  0  0  0  0  0  0  0
   -1.3922   -7.9086   35.4473 H   0  0  0  0  0  0  0  0  0  0  0  0
   -0.8147   -6.8489   29.3655 H   0  0  0  0  0  0  0  0  0  0  0  0
    0.0055   -5.6390   30.0944 H   0  0  0  0  0  0  0  0  0  0  0  0
  1  2  1  0
  2  3  1  0
  3  4  1  0
  4  5  2  0
  5  6  1  0
  6  7  2  0
  7  8  1  0
  8  9  2  0
  2 10  1  0
 10 11  2  0
 10 12  1  0
 12 13  1  0
 13 14  1  0
 14 15  2  0
 15 16  1  0
 16 17  2  0
 17 18  1  0
 18 19  2  0
 19 20  1  0
 20 21  1  0
 21 22  1  0
 22 23  1  0
 22 24  2  0
 22 25  2  0
 20 26  2  0
 15 27  1  0
 27 28  2  0
 28 29  1  0
 29 30  2  0
 30 31  1  0
 31 32  2  0
 32 33  1  0
 32 34  1  0
  9  4  1  0
 34 14  1  0
 26 16  1  0
 34 29  1  0
  1 35  1  0
  1 36  1  0
  1 37  1  0
  3 38  1  0
  3 39  1  0
  5 40  1  0
  6 41  1  0
  7 42  1  0
  8 43  1  0
  9 44  1  0
 12 45  1  0
 13 46  1  0
 13 47  1  0
 17 48  1  0
 18 49  1  0
 19 50  1  0
 21 51  1  0
 23 52  1  0
 23 53  1  0
 23 54  1  0
 26 55  1  0
 27 56  1  0
 28 57  1  0
 33 58  1  0
 33 59  1  0
M  END
>  <Energy>  (882) 
-1.6349013428269337

>  <compound_id>  (882) 
3707

>  <target_id>  (882) 
1

>  <reference_id>  (882) 
165

>  <inspiration_ids>  (882) 
[130, 165]

>  <energy_score>  (882) 
6.270002482996659

>  <distance_score>  (882) 
1.3325539608747905

>  <path>  (882) 
/opt/xchem-fragalysis-2/maxwin/BulkDock/SCRATCH/505734/C3707-P165/C3707-P165.minimised.mol

>  <scratch_subdir>  (882) 
/opt/xchem-fragalysis-2/maxwin/BulkDock/SCRATCH/505734/C3707-P165

>  <fragmenstein_runtime>  (882) 
14.497163534164429

>  <fragmenstein_outcome>  (882) 
too moved

>  <fragmenstein_mode>  (882) 
expansion

>  <fragmenstein_error>  (882) 


$$$$
C3782-P130
     RDKit          3D

 41 43  0  0  0  0  0  0  0  0999 V2000
   -0.2087   -3.4298   28.5644 C   0  0  0  0  0  0  0  0  0  0  0  0
   -1.0301   -3.1299   29.6999 N   0  0  0  0  0  0  0  0  0  0  0  0
   -1.7620   -1.8973   29.6554 C   0  0  0  0  0  0  0  0  0  0  0  0
   -0.8406   -0.7134   29.7758 C   0  0  0  0  0  0  0  0  0  0  0  0
   -1.0876    0.3595   28.8918 C   0  0  0  0  0  0  0  0  0  0  0  0
   -0.3335    1.5226   28.9287 C   0  0  0  0  0  0  0  0  0  0  0  0
    0.6879    1.6254   29.8502 C   0  0  0  0  0  0  0  0  0  0  0  0
    0.9457    0.5644   30.7291 C   0  0  0  0  0  0  0  0  0  0  0  0
    0.2030   -0.6334   30.7262 C   0  0  0  0  0  0  0  0  0  0  0  0
    0.4913   -1.6796   31.8288 C   0  0  0  0  0  0  0  0  0  0  0  0
    0.5900   -3.2346   31.5280 C   0  0  0  0  0  0  0  0  0  0  0  0
    1.8433   -3.5350   30.6677 C   0  0  0  0  0  0  0  0  0  0  0  0
    0.7046   -4.0472   32.8733 C   0  0  0  0  0  0  0  0  0  0  0  0
    0.9712   -5.5720   32.7829 C   0  0  0  0  0  0  0  0  0  0  0  0
   -0.0239   -6.4320   32.1852 N   0  0  0  0  0  0  0  0  0  0  0  0
   -0.9779   -7.1590   32.8310 C   0  0  0  0  0  0  0  0  0  0  0  0
   -1.5567   -7.9783   31.9793 N   0  0  0  0  0  0  0  0  0  0  0  0
   -0.9768   -7.7903   30.7496 N   0  0  0  0  0  0  0  0  0  0  0  0
   -0.0509   -6.8716   30.8948 C   0  0  0  0  0  0  0  0  0  0  0  0
   -0.7795   -3.5788   30.9577 C   0  0  0  0  0  0  0  0  0  0  0  0
   -1.7116   -3.9671   31.6653 O   0  0  0  0  0  0  0  0  0  0  0  0
   -0.8917   -3.5917   27.7460 H   0  0  0  0  0  0  0  0  0  0  0  0
    0.4722   -2.6111   28.3255 H   0  0  0  0  0  0  0  0  0  0  0  0
    0.3446   -4.3545   28.7206 H   0  0  0  0  0  0  0  0  0  0  0  0
   -2.3235   -1.8794   28.7158 H   0  0  0  0  0  0  0  0  0  0  0  0
   -2.4606   -1.8468   30.4972 H   0  0  0  0  0  0  0  0  0  0  0  0
   -1.8838    0.2876   28.1508 H   0  0  0  0  0  0  0  0  0  0  0  0
   -0.5509    2.3399   28.2461 H   0  0  0  0  0  0  0  0  0  0  0  0
    1.2855    2.5320   29.9014 H   0  0  0  0  0  0  0  0  0  0  0  0
    1.7473    0.6977   31.4554 H   0  0  0  0  0  0  0  0  0  0  0  0
    1.4311   -1.3962   32.3230 H   0  0  0  0  0  0  0  0  0  0  0  0
   -0.2928   -1.5226   32.5844 H   0  0  0  0  0  0  0  0  0  0  0  0
    2.7481   -3.4515   31.2822 H   0  0  0  0  0  0  0  0  0  0  0  0
    1.9738   -2.8167   29.8551 H   0  0  0  0  0  0  0  0  0  0  0  0
    1.8317   -4.5417   30.2458 H   0  0  0  0  0  0  0  0  0  0  0  0
    1.5381   -3.6176   33.4469 H   0  0  0  0  0  0  0  0  0  0  0  0
   -0.1842   -3.8852   33.4976 H   0  0  0  0  0  0  0  0  0  0  0  0
    1.9158   -5.7592   32.2590 H   0  0  0  0  0  0  0  0  0  0  0  0
    1.1247   -5.9465   33.8037 H   0  0  0  0  0  0  0  0  0  0  0  0
   -1.2064   -7.0726   33.8846 H   0  0  0  0  0  0  0  0  0  0  0  0
    0.6085   -6.5158   30.1199 H   0  0  0  0  0  0  0  0  0  0  0  0
  1  2  1  0
  2  3  1  0
  3  4  1  0
  4  5  2  0
  5  6  1  0
  6  7  2  0
  7  8  1  0
  8  9  2  0
  9 10  1  0
 10 11  1  0
 11 12  1  0
 11 13  1  0
 13 14  1  0
 14 15  1  0
 15 16  1  0
 16 17  2  0
 17 18  1  0
 18 19  2  0
 11 20  1  0
 20 21  2  0
 20  2  1  0
  9  4  1  0
 19 15  1  0
  1 22  1  0
  1 23  1  0
  1 24  1  0
  3 25  1  0
  3 26  1  0
  5 27  1  0
  6 28  1  0
  7 29  1  0
  8 30  1  0
 10 31  1  0
 10 32  1  0
 12 33  1  0
 12 34  1  0
 12 35  1  0
 13 36  1  0
 13 37  1  0
 14 38  1  0
 14 39  1  0
 16 40  1  0
 19 41  1  0
M  END
>  <Energy>  (883) 
41.360355989414927

>  <compound_id>  (883) 
3782

>  <target_id>  (883) 
1

>  <reference_id>  (883) 
130

>  <inspiration_ids>  (883) 
[130, 177]

>  <energy_score>  (883) 
-7.477535828351336

>  <distance_score>  (883) 
1.8333205263671732

>  <path>  (883) 
/opt/xchem-fragalysis-2/maxwin/BulkDock/SCRATCH/505734/C3782-P130/C3782-P130.minimised.mol

>  <scratch_subdir>  (883) 
/opt/xchem-fragalysis-2/maxwin/BulkDock/SCRATCH/505734/C3782-P130

>  <fragmenstein_runtime>  (883) 
42.96028447151184

>  <fragmenstein_outcome>  (883) 
too moved

>  <fragmenstein_mode>  (883) 
expansion

>  <fragmenstein_error>  (883) 


$$$$
C3782-P177
     RDKit          3D

 41 43  0  0  0  0  0  0  0  0999 V2000
   -0.0418   -3.3445   28.1906 C   0  0  0  0  0  0  0  0  0  0  0  0
   -0.8645   -3.1154   29.3636 N   0  0  0  0  0  0  0  0  0  0  0  0
   -1.5751   -1.8723   29.4039 C   0  0  0  0  0  0  0  0  0  0  0  0
   -0.6610   -0.6962   29.6135 C   0  0  0  0  0  0  0  0  0  0  0  0
   -0.9760    0.4669   28.8829 C   0  0  0  0  0  0  0  0  0  0  0  0
   -0.2441    1.6358   29.0228 C   0  0  0  0  0  0  0  0  0  0  0  0
    0.8342    1.6574   29.8779 C   0  0  0  0  0  0  0  0  0  0  0  0
    1.1497    0.5148   30.6162 C   0  0  0  0  0  0  0  0  0  0  0  0
    0.4160   -0.6858   30.5262 C   0  0  0  0  0  0  0  0  0  0  0  0
    0.7424   -1.7873   31.5488 C   0  0  0  0  0  0  0  0  0  0  0  0
    0.7353   -3.3319   31.2248 C   0  0  0  0  0  0  0  0  0  0  0  0
    1.9562   -3.7294   30.3650 C   0  0  0  0  0  0  0  0  0  0  0  0
    0.7981   -4.1155   32.5953 C   0  0  0  0  0  0  0  0  0  0  0  0
    0.9836   -5.6442   32.5456 C   0  0  0  0  0  0  0  0  0  0  0  0
   -0.1277   -6.4548   32.1140 N   0  0  0  0  0  0  0  0  0  0  0  0
   -0.9640   -7.1714   32.9126 C   0  0  0  0  0  0  0  0  0  0  0  0
   -1.7184   -7.9452   32.1668 N   0  0  0  0  0  0  0  0  0  0  0  0
   -1.3868   -7.7277   30.8552 N   0  0  0  0  0  0  0  0  0  0  0  0
   -0.4285   -6.8325   30.8410 C   0  0  0  0  0  0  0  0  0  0  0  0
   -0.6363   -3.5987   30.6248 C   0  0  0  0  0  0  0  0  0  0  0  0
   -1.5869   -3.9429   31.3358 O   0  0  0  0  0  0  0  0  0  0  0  0
    0.7490   -2.5963   28.1101 H   0  0  0  0  0  0  0  0  0  0  0  0
    0.3859   -4.3488   28.2280 H   0  0  0  0  0  0  0  0  0  0  0  0
   -0.6670   -3.2746   27.2962 H   0  0  0  0  0  0  0  0  0  0  0  0
   -2.1432   -1.7827   28.4722 H   0  0  0  0  0  0  0  0  0  0  0  0
   -2.2623   -1.8737   30.2548 H   0  0  0  0  0  0  0  0  0  0  0  0
   -1.8090    0.4675   28.1834 H   0  0  0  0  0  0  0  0  0  0  0  0
   -0.5107    2.5253   28.4645 H   0  0  0  0  0  0  0  0  0  0  0  0
    1.4270    2.5616   29.9875 H   0  0  0  0  0  0  0  0  0  0  0  0
    1.9865    0.5842   31.3112 H   0  0  0  0  0  0  0  0  0  0  0  0
    1.7324   -1.5670   31.9734 H   0  0  0  0  0  0  0  0  0  0  0  0
    0.0313   -1.6121   32.3706 H   0  0  0  0  0  0  0  0  0  0  0  0
    2.8579   -3.7884   30.9863 H   0  0  0  0  0  0  0  0  0  0  0  0
    2.1807   -2.9869   29.5960 H   0  0  0  0  0  0  0  0  0  0  0  0
    1.8221   -4.7024   29.8856 H   0  0  0  0  0  0  0  0  0  0  0  0
    1.6561   -3.7176   33.1559 H   0  0  0  0  0  0  0  0  0  0  0  0
   -0.0812   -3.8862   33.2120 H   0  0  0  0  0  0  0  0  0  0  0  0
    1.8435   -5.9074   31.9243 H   0  0  0  0  0  0  0  0  0  0  0  0
    1.2379   -5.9856   33.5579 H   0  0  0  0  0  0  0  0  0  0  0  0
   -0.9822   -7.1193   33.9924 H   0  0  0  0  0  0  0  0  0  0  0  0
    0.0523   -6.4487   29.9542 H   0  0  0  0  0  0  0  0  0  0  0  0
  1  2  1  0
  2  3  1  0
  3  4  1  0
  4  5  2  0
  5  6  1  0
  6  7  2  0
  7  8  1  0
  8  9  2  0
  9 10  1  0
 10 11  1  0
 11 12  1  0
 11 13  1  0
 13 14  1  0
 14 15  1  0
 15 16  1  0
 16 17  2  0
 17 18  1  0
 18 19  2  0
 11 20  1  0
 20 21  2  0
 20  2  1  0
  9  4  1  0
 19 15  1  0
  1 22  1  0
  1 23  1  0
  1 24  1  0
  3 25  1  0
  3 26  1  0
  5 27  1  0
  6 28  1  0
  7 29  1  0
  8 30  1  0
 10 31  1  0
 10 32  1  0
 12 33  1  0
 12 34  1  0
 12 35  1  0
 13 36  1  0
 13 37  1  0
 14 38  1  0
 14 39  1  0
 16 40  1  0
 19 41  1  0
M  END
>  <Energy>  (884) 
42.076209204433781

>  <compound_id>  (884) 
3782

>  <target_id>  (884) 
1

>  <reference_id>  (884) 
177

>  <inspiration_ids>  (884) 
[130, 177]

>  <energy_score>  (884) 
-6.761682613332994

>  <distance_score>  (884) 
1.7986778852131067

>  <path>  (884) 
/opt/xchem-fragalysis-2/maxwin/BulkDock/SCRATCH/505734/C3782-P177/C3782-P177.minimised.mol

>  <scratch_subdir>  (884) 
/opt/xchem-fragalysis-2/maxwin/BulkDock/SCRATCH/505734/C3782-P177

>  <fragmenstein_runtime>  (884) 
42.402857542037964

>  <fragmenstein_outcome>  (884) 
too moved

>  <fragmenstein_mode>  (884) 
expansion

>  <fragmenstein_error>  (884) 


$$$$
C3784-P130
     RDKit          3D

 58 61  0  0  0  0  0  0  0  0999 V2000
    0.9726    4.3977   33.4245 C   0  0  0  0  0  0  0  0  0  0  0  0
    1.1734    3.0227   33.7874 N   0  0  0  0  0  0  0  0  0  0  0  0
    1.6822    2.4344   34.9861 C   0  0  0  0  0  0  0  0  0  0  0  0
    1.9988    2.9303   36.0259 O   0  0  0  0  0  0  0  0  0  0  0  0
    1.7962    0.9466   34.8969 C   0  0  0  0  0  0  0  0  0  0  0  0
    2.3373    0.3271   33.7643 C   0  0  0  0  0  0  0  0  0  0  0  0
    2.3885   -1.0664   33.6943 C   0  0  0  0  0  0  0  0  0  0  0  0
    1.9008   -1.8496   34.7522 C   0  0  0  0  0  0  0  0  0  0  0  0
    1.8671   -3.3196   34.6039 C   0  0  0  0  0  0  0  0  0  0  0  0
    2.9710   -4.1461   35.0870 C   0  0  0  0  0  0  0  0  0  0  0  0
    2.9690   -5.4823   34.9612 C   0  0  0  0  0  0  0  0  0  0  0  0
    1.9008   -6.1154   34.2843 C   0  0  0  0  0  0  0  0  0  0  0  0
    1.6706   -7.3814   34.0356 N   0  0  0  0  0  0  0  0  0  0  0  0
    0.5495   -7.4473   33.2556 N   0  0  0  0  0  0  0  0  0  0  0  0
    0.1129   -6.2301   33.0334 C   0  0  0  0  0  0  0  0  0  0  0  0
   -0.8717   -5.9248   32.1671 N   0  0  0  0  0  0  0  0  0  0  0  0
    0.8804   -5.3216   33.7631 N   0  0  0  0  0  0  0  0  0  0  0  0
    0.8149   -3.9245   33.9839 C   0  0  0  0  0  0  0  0  0  0  0  0
   -0.4509   -3.1953   33.6625 C   0  0  0  0  0  0  0  0  0  0  0  0
   -0.4347   -2.7059   32.3219 N   0  0  0  0  0  0  0  0  0  0  0  0
   -1.4315   -2.7654   31.2856 C   0  0  0  0  0  0  0  0  0  0  0  0
   -2.4749   -3.3007   31.2634 O   0  0  0  0  0  0  0  0  0  0  0  0
   -0.8048   -1.8862   30.3107 N   0  0  0  0  0  0  0  0  0  0  0  0
    0.0238   -2.6922   29.3424 C   0  0  0  0  0  0  0  0  0  0  0  0
   -1.3434   -1.3027   29.0298 C   0  0  0  0  0  0  0  0  0  0  0  0
   -0.8183    0.0887   28.7070 C   0  0  0  0  0  0  0  0  0  0  0  0
    0.1074    0.7624   29.5184 C   0  0  0  0  0  0  0  0  0  0  0  0
    0.4738    2.0794   29.2352 C   0  0  0  0  0  0  0  0  0  0  0  0
   -0.0933    2.7436   28.1497 C   0  0  0  0  0  0  0  0  0  0  0  0
   -1.0130    2.0881   27.3357 C   0  0  0  0  0  0  0  0  0  0  0  0
   -1.3652    0.7661   27.6061 C   0  0  0  0  0  0  0  0  0  0  0  0
    1.4193   -1.2263   35.9090 C   0  0  0  0  0  0  0  0  0  0  0  0
    1.3680    0.1691   35.9807 C   0  0  0  0  0  0  0  0  0  0  0  0
    1.3056    5.0482   34.2363 H   0  0  0  0  0  0  0  0  0  0  0  0
   -0.0909    4.5531   33.2304 H   0  0  0  0  0  0  0  0  0  0  0  0
    1.5446    4.6035   32.5170 H   0  0  0  0  0  0  0  0  0  0  0  0
    0.9364    2.2874   33.1338 H   0  0  0  0  0  0  0  0  0  0  0  0
    2.7341    0.9185   32.9427 H   0  0  0  0  0  0  0  0  0  0  0  0
    2.8024   -1.5394   32.8058 H   0  0  0  0  0  0  0  0  0  0  0  0
    3.7938   -3.6478   35.5946 H   0  0  0  0  0  0  0  0  0  0  0  0
    3.7787   -6.0899   35.3503 H   0  0  0  0  0  0  0  0  0  0  0  0
   -1.4808   -6.7035   31.9273 H   0  0  0  0  0  0  0  0  0  0  0  0
   -1.3901   -5.0565   32.2379 H   0  0  0  0  0  0  0  0  0  0  0  0
   -0.6168   -2.3281   34.3086 H   0  0  0  0  0  0  0  0  0  0  0  0
   -1.3291   -3.8194   33.8240 H   0  0  0  0  0  0  0  0  0  0  0  0
    0.3077   -2.0856   32.0300 H   0  0  0  0  0  0  0  0  0  0  0  0
    0.6687   -2.1127   28.6645 H   0  0  0  0  0  0  0  0  0  0  0  0
   -0.5481   -3.4953   28.8505 H   0  0  0  0  0  0  0  0  0  0  0  0
    0.7421   -3.2461   29.9654 H   0  0  0  0  0  0  0  0  0  0  0  0
   -1.5264   -1.9329   28.1415 H   0  0  0  0  0  0  0  0  0  0  0  0
   -2.3741   -1.0899   29.3380 H   0  0  0  0  0  0  0  0  0  0  0  0
    0.5362    0.2752   30.3888 H   0  0  0  0  0  0  0  0  0  0  0  0
    1.1853    2.5996   29.8703 H   0  0  0  0  0  0  0  0  0  0  0  0
    0.1670    3.7795   27.9461 H   0  0  0  0  0  0  0  0  0  0  0  0
   -1.4736    2.6137   26.5027 H   0  0  0  0  0  0  0  0  0  0  0  0
   -2.0937    0.2704   26.9654 H   0  0  0  0  0  0  0  0  0  0  0  0
    1.0586   -1.8171   36.7485 H   0  0  0  0  0  0  0  0  0  0  0  0
    0.9805    0.6522   36.8761 H   0  0  0  0  0  0  0  0  0  0  0  0
  1  2  1  0
  2  3  1  0
  3  4  2  0
  3  5  1  0
  5  6  2  0
  6  7  1  0
  7  8  2  0
  8  9  1  0
  9 10  1  0
 10 11  2  0
 11 12  1  0
 12 13  2  0
 13 14  1  0
 14 15  2  0
 15 16  1  0
 15 17  1  0
 17 18  1  0
 18 19  1  0
 19 20  1  0
 20 21  1  0
 21 22  2  0
 21 23  1  0
 23 24  1  0
 23 25  1  0
 25 26  1  0
 26 27  2  0
 27 28  1  0
 28 29  2  0
 29 30  1  0
 30 31  2  0
  8 32  1  0
 32 33  2  0
 33  5  1  0
 18  9  2  0
 31 26  1  0
 17 12  1  0
  1 34  1  0
  1 35  1  0
  1 36  1  0
  2 37  1  0
  6 38  1  0
  7 39  1  0
 10 40  1  0
 11 41  1  0
 16 42  1  0
 16 43  1  0
 19 44  1  0
 19 45  1  0
 20 46  1  0
 24 47  1  0
 24 48  1  0
 24 49  1  0
 25 50  1  0
 25 51  1  0
 27 52  1  0
 28 53  1  0
 29 54  1  0
 30 55  1  0
 31 56  1  0
 32 57  1  0
 33 58  1  0
M  END
>  <Energy>  (885) 
50.83916680734864

>  <compound_id>  (885) 
3784

>  <target_id>  (885) 
1

>  <reference_id>  (885) 
130

>  <inspiration_ids>  (885) 
[130, 183]

>  <energy_score>  (885) 
31.554367392917527

>  <distance_score>  (885) 
2.135225054598958

>  <path>  (885) 
/opt/xchem-fragalysis-2/maxwin/BulkDock/SCRATCH/505734/C3784-P130/C3784-P130.minimised.mol

>  <scratch_subdir>  (885) 
/opt/xchem-fragalysis-2/maxwin/BulkDock/SCRATCH/505734/C3784-P130

>  <fragmenstein_runtime>  (885) 
9.02236533164978

>  <fragmenstein_outcome>  (885) 
too moved

>  <fragmenstein_mode>  (885) 
expansion

>  <fragmenstein_error>  (885) 


$$$$
C3784-P183
     RDKit          3D

 58 61  0  0  0  0  0  0  0  0999 V2000
    2.9244    4.4367   36.0746 C   0  0  0  0  0  0  0  0  0  0  0  0
    2.6775    3.0267   35.9742 N   0  0  0  0  0  0  0  0  0  0  0  0
    1.5244    2.2530   36.3005 C   0  0  0  0  0  0  0  0  0  0  0  0
    0.4930    2.5674   36.8152 O   0  0  0  0  0  0  0  0  0  0  0  0
    1.6709    0.8112   35.9400 C   0  0  0  0  0  0  0  0  0  0  0  0
    2.1655    0.4205   34.6891 C   0  0  0  0  0  0  0  0  0  0  0  0
    2.2457   -0.9369   34.3662 C   0  0  0  0  0  0  0  0  0  0  0  0
    1.8179   -1.9081   35.2828 C   0  0  0  0  0  0  0  0  0  0  0  0
    1.8518   -3.3390   34.9158 C   0  0  0  0  0  0  0  0  0  0  0  0
    2.9711   -4.1748   35.3465 C   0  0  0  0  0  0  0  0  0  0  0  0
    3.0077   -5.4946   35.1126 C   0  0  0  0  0  0  0  0  0  0  0  0
    1.9643   -6.0974   34.3751 C   0  0  0  0  0  0  0  0  0  0  0  0
    1.7646   -7.3496   34.0465 N   0  0  0  0  0  0  0  0  0  0  0  0
    0.6584   -7.3899   33.2464 N   0  0  0  0  0  0  0  0  0  0  0  0
    0.1919   -6.1720   33.1038 C   0  0  0  0  0  0  0  0  0  0  0  0
   -0.8131   -5.8419   32.2716 N   0  0  0  0  0  0  0  0  0  0  0  0
    0.9372   -5.2893   33.8874 N   0  0  0  0  0  0  0  0  0  0  0  0
    0.8380   -3.9086   34.2039 C   0  0  0  0  0  0  0  0  0  0  0  0
   -0.4346   -3.1770   33.9064 C   0  0  0  0  0  0  0  0  0  0  0  0
   -0.4669   -2.6864   32.5635 N   0  0  0  0  0  0  0  0  0  0  0  0
   -1.4968   -2.7623   31.5557 C   0  0  0  0  0  0  0  0  0  0  0  0
   -2.5311   -3.3142   31.5663 O   0  0  0  0  0  0  0  0  0  0  0  0
   -0.9171   -1.8751   30.5622 N   0  0  0  0  0  0  0  0  0  0  0  0
   -0.1054   -2.6695   29.5672 C   0  0  0  0  0  0  0  0  0  0  0  0
   -1.5065   -1.3015   29.2975 C   0  0  0  0  0  0  0  0  0  0  0  0
   -0.9434    0.0484   28.8825 C   0  0  0  0  0  0  0  0  0  0  0  0
   -0.0937    0.7999   29.7077 C   0  0  0  0  0  0  0  0  0  0  0  0
    0.3126    2.0809   29.3294 C   0  0  0  0  0  0  0  0  0  0  0  0
   -0.1445    2.6345   28.1357 C   0  0  0  0  0  0  0  0  0  0  0  0
   -0.9904    1.9010   27.3086 C   0  0  0  0  0  0  0  0  0  0  0  0
   -1.3769    0.6113   27.6731 C   0  0  0  0  0  0  0  0  0  0  0  0
    1.3329   -1.5129   36.5362 C   0  0  0  0  0  0  0  0  0  0  0  0
    1.2495   -0.1567   36.8592 C   0  0  0  0  0  0  0  0  0  0  0  0
    3.1628    4.8185   35.0794 H   0  0  0  0  0  0  0  0  0  0  0  0
    3.7752    4.5932   36.7414 H   0  0  0  0  0  0  0  0  0  0  0  0
    2.0394    4.9412   36.4691 H   0  0  0  0  0  0  0  0  0  0  0  0
    3.3989    2.4106   35.6204 H   0  0  0  0  0  0  0  0  0  0  0  0
    2.4552    1.1628   33.9493 H   0  0  0  0  0  0  0  0  0  0  0  0
    2.6238   -1.2311   33.3893 H   0  0  0  0  0  0  0  0  0  0  0  0
    3.7733   -3.6999   35.9066 H   0  0  0  0  0  0  0  0  0  0  0  0
    3.8275   -6.1107   35.4643 H   0  0  0  0  0  0  0  0  0  0  0  0
   -1.3972   -6.6267   31.9912 H   0  0  0  0  0  0  0  0  0  0  0  0
   -1.3721   -5.0153   32.4484 H   0  0  0  0  0  0  0  0  0  0  0  0
   -0.5965   -2.3096   34.5526 H   0  0  0  0  0  0  0  0  0  0  0  0
   -1.2997   -3.8140   34.0887 H   0  0  0  0  0  0  0  0  0  0  0  0
    0.2565   -2.0543   32.2491 H   0  0  0  0  0  0  0  0  0  0  0  0
    0.5105   -2.0850   28.8677 H   0  0  0  0  0  0  0  0  0  0  0  0
   -0.6779   -3.4832   29.0943 H   0  0  0  0  0  0  0  0  0  0  0  0
    0.6403   -3.2107   30.1690 H   0  0  0  0  0  0  0  0  0  0  0  0
   -1.7588   -1.9654   28.4525 H   0  0  0  0  0  0  0  0  0  0  0  0
   -2.5176   -1.0425   29.6502 H   0  0  0  0  0  0  0  0  0  0  0  0
    0.2376    0.4070   30.6647 H   0  0  0  0  0  0  0  0  0  0  0  0
    0.9566    2.6650   29.9813 H   0  0  0  0  0  0  0  0  0  0  0  0
    0.1406    3.6467   27.8603 H   0  0  0  0  0  0  0  0  0  0  0  0
   -1.3672    2.3407   26.3888 H   0  0  0  0  0  0  0  0  0  0  0  0
   -2.0399    0.0509   27.0149 H   0  0  0  0  0  0  0  0  0  0  0  0
    0.9924   -2.2534   37.2576 H   0  0  0  0  0  0  0  0  0  0  0  0
    0.8445    0.1477   37.8228 H   0  0  0  0  0  0  0  0  0  0  0  0
  1  2  1  0
  2  3  1  0
  3  4  2  0
  3  5  1  0
  5  6  2  0
  6  7  1  0
  7  8  2  0
  8  9  1  0
  9 10  1  0
 10 11  2  0
 11 12  1  0
 12 13  2  0
 13 14  1  0
 14 15  2  0
 15 16  1  0
 15 17  1  0
 17 18  1  0
 18 19  1  0
 19 20  1  0
 20 21  1  0
 21 22  2  0
 21 23  1  0
 23 24  1  0
 23 25  1  0
 25 26  1  0
 26 27  2  0
 27 28  1  0
 28 29  2  0
 29 30  1  0
 30 31  2  0
  8 32  1  0
 32 33  2  0
 33  5  1  0
 18  9  2  0
 31 26  1  0
 17 12  1  0
  1 34  1  0
  1 35  1  0
  1 36  1  0
  2 37  1  0
  6 38  1  0
  7 39  1  0
 10 40  1  0
 11 41  1  0
 16 42  1  0
 16 43  1  0
 19 44  1  0
 19 45  1  0
 20 46  1  0
 24 47  1  0
 24 48  1  0
 24 49  1  0
 25 50  1  0
 25 51  1  0
 27 52  1  0
 28 53  1  0
 29 54  1  0
 30 55  1  0
 31 56  1  0
 32 57  1  0
 33 58  1  0
M  END
>  <Energy>  (886) 
49.880208840784199

>  <compound_id>  (886) 
3784

>  <target_id>  (886) 
1

>  <reference_id>  (886) 
183

>  <inspiration_ids>  (886) 
[130, 183]

>  <energy_score>  (886) 
30.595409426351182

>  <distance_score>  (886) 
2.1869189921837724

>  <path>  (886) 
/opt/xchem-fragalysis-2/maxwin/BulkDock/SCRATCH/505734/C3784-P183/C3784-P183.minimised.mol

>  <scratch_subdir>  (886) 
/opt/xchem-fragalysis-2/maxwin/BulkDock/SCRATCH/505734/C3784-P183

>  <fragmenstein_runtime>  (886) 
8.563270092010498

>  <fragmenstein_outcome>  (886) 
too moved

>  <fragmenstein_mode>  (886) 
expansion

>  <fragmenstein_error>  (886) 


$$$$
C3786-P130
     RDKit          3D

 58 62  0  0  0  0  0  0  0  0999 V2000
   -0.9520   -1.6561   28.8532 C   0  0  0  0  0  0  0  0  0  0  0  0
   -0.7263   -1.4109   30.3490 N   0  0  0  0  0  0  0  0  0  0  0  0
   -1.5162   -0.1781   30.0506 C   0  0  0  0  0  0  0  0  0  0  0  0
   -0.7742    0.9925   29.4381 C   0  0  0  0  0  0  0  0  0  0  0  0
    0.4456    1.4268   29.9728 C   0  0  0  0  0  0  0  0  0  0  0  0
    1.1007    2.5259   29.4194 C   0  0  0  0  0  0  0  0  0  0  0  0
    0.5443    3.1979   28.3315 C   0  0  0  0  0  0  0  0  0  0  0  0
   -0.6648    2.7707   27.7890 C   0  0  0  0  0  0  0  0  0  0  0  0
   -1.3212    1.6709   28.3366 C   0  0  0  0  0  0  0  0  0  0  0  0
   -1.0819   -2.6028   31.1085 C   0  0  0  0  0  0  0  0  0  0  0  0
   -2.1067   -2.9197   31.5952 O   0  0  0  0  0  0  0  0  0  0  0  0
    0.1795   -3.3243   31.0015 N   0  0  0  0  0  0  0  0  0  0  0  0
    0.5101   -4.6018   31.3485 C   0  0  0  0  0  0  0  0  0  0  0  0
    1.3845   -5.1466   30.3189 C   0  0  0  0  0  0  0  0  0  0  0  0
    1.1697   -6.3690   29.8283 C   0  0  0  0  0  0  0  0  0  0  0  0
    0.1581   -7.1734   30.4013 C   0  0  0  0  0  0  0  0  0  0  0  0
   -0.3955   -8.2953   30.0063 N   0  0  0  0  0  0  0  0  0  0  0  0
   -1.2791   -8.6798   30.9746 N   0  0  0  0  0  0  0  0  0  0  0  0
   -1.2513   -7.7743   31.9259 C   0  0  0  0  0  0  0  0  0  0  0  0
   -0.3957   -6.7545   31.6035 N   0  0  0  0  0  0  0  0  0  0  0  0
   -0.1709   -5.4639   32.1449 C   0  0  0  0  0  0  0  0  0  0  0  0
   -0.6268   -5.0507   33.4590 N   0  0  0  0  0  0  0  0  0  0  0  0
   -0.3807   -3.7057   34.0595 C   0  0  0  0  0  0  0  0  0  0  0  0
    0.4703   -3.8879   35.3141 C   0  0  0  0  0  0  0  0  0  0  0  0
   -0.0750   -5.1098   36.0443 C   0  0  0  0  0  0  0  0  0  0  0  0
    0.8057   -5.7031   37.1297 C   0  0  0  0  0  0  0  0  0  0  0  0
    0.6362   -7.0286   37.5682 C   0  0  0  0  0  0  0  0  0  0  0  0
    1.4126   -7.5593   38.6016 C   0  0  0  0  0  0  0  0  0  0  0  0
    2.3679   -6.7711   39.2314 C   0  0  0  0  0  0  0  0  0  0  0  0
    2.5408   -5.4502   38.8328 C   0  0  0  0  0  0  0  0  0  0  0  0
    1.7625   -4.9191   37.7992 C   0  0  0  0  0  0  0  0  0  0  0  0
   -0.3334   -6.2652   34.6853 S   0  0  0  0  0  0  0  0  0  0  0  0
   -1.5652   -6.9958   34.8971 O   0  0  0  0  0  0  0  0  0  0  0  0
    0.9033   -6.9377   34.3298 O   0  0  0  0  0  0  0  0  0  0  0  0
   -0.4792   -2.6265   28.6396 H   0  0  0  0  0  0  0  0  0  0  0  0
   -0.4086   -0.9821   28.1812 H   0  0  0  0  0  0  0  0  0  0  0  0
   -1.9983   -1.8467   28.5697 H   0  0  0  0  0  0  0  0  0  0  0  0
   -1.7616    0.1774   31.0654 H   0  0  0  0  0  0  0  0  0  0  0  0
   -2.5269   -0.3461   29.6708 H   0  0  0  0  0  0  0  0  0  0  0  0
    0.8846    0.9169   30.8267 H   0  0  0  0  0  0  0  0  0  0  0  0
    2.0413    2.8698   29.8417 H   0  0  0  0  0  0  0  0  0  0  0  0
    1.0469    4.0668   27.9139 H   0  0  0  0  0  0  0  0  0  0  0  0
   -1.1085    3.3079   26.9539 H   0  0  0  0  0  0  0  0  0  0  0  0
   -2.2710    1.3646   27.9043 H   0  0  0  0  0  0  0  0  0  0  0  0
    0.8269   -2.7793   30.4447 H   0  0  0  0  0  0  0  0  0  0  0  0
    2.1704   -4.5232   29.9022 H   0  0  0  0  0  0  0  0  0  0  0  0
    1.7697   -6.7512   29.0121 H   0  0  0  0  0  0  0  0  0  0  0  0
   -1.8688   -7.8083   32.8043 H   0  0  0  0  0  0  0  0  0  0  0  0
   -1.3463   -3.2616   34.3215 H   0  0  0  0  0  0  0  0  0  0  0  0
    0.1460   -3.0064   33.4142 H   0  0  0  0  0  0  0  0  0  0  0  0
    0.4399   -2.9875   35.9368 H   0  0  0  0  0  0  0  0  0  0  0  0
    1.5148   -4.0497   35.0153 H   0  0  0  0  0  0  0  0  0  0  0  0
   -1.0633   -4.8862   36.4647 H   0  0  0  0  0  0  0  0  0  0  0  0
   -0.0991   -7.6894   37.1138 H   0  0  0  0  0  0  0  0  0  0  0  0
    1.2633   -8.5917   38.9159 H   0  0  0  0  0  0  0  0  0  0  0  0
    2.9677   -7.1858   40.0373 H   0  0  0  0  0  0  0  0  0  0  0  0
    3.2781   -4.8277   39.3339 H   0  0  0  0  0  0  0  0  0  0  0  0
    1.9209   -3.8753   37.5399 H   0  0  0  0  0  0  0  0  0  0  0  0
  1  2  1  0
  2  3  1  0
  3  4  1  0
  4  5  2  0
  5  6  1  0
  6  7  2  0
  7  8  1  0
  8  9  2  0
  2 10  1  0
 10 11  2  0
 10 12  1  0
 12 13  1  0
 13 14  1  0
 14 15  2  0
 15 16  1  0
 16 17  2  0
 17 18  1  0
 18 19  2  0
 19 20  1  0
 20 21  1  0
 21 22  1  0
 22 23  1  0
 23 24  1  0
 24 25  1  0
 25 26  1  0
 26 27  2  0
 27 28  1  0
 28 29  2  0
 29 30  1  0
 30 31  2  0
 25 32  1  0
 32 33  2  0
 32 34  2  0
  9  4  1  0
 21 13  2  0
 32 22  1  0
 20 16  1  0
 31 26  1  0
  1 35  1  0
  1 36  1  0
  1 37  1  0
  3 38  1  0
  3 39  1  0
  5 40  1  0
  6 41  1  0
  7 42  1  0
  8 43  1  0
  9 44  1  0
 12 45  1  0
 14 46  1  0
 15 47  1  0
 19 48  1  0
 23 49  1  0
 23 50  1  0
 24 51  1  0
 24 52  1  0
 25 53  1  0
 27 54  1  0
 28 55  1  0
 29 56  1  0
 30 57  1  0
 31 58  1  0
M  END
>  <Energy>  (887) 
118.4817314251659

>  <compound_id>  (887) 
3786

>  <target_id>  (887) 
1

>  <reference_id>  (887) 
130

>  <inspiration_ids>  (887) 
[130, 189]

>  <energy_score>  (887) 
32.87106564852172

>  <distance_score>  (887) 
1.6393248033087684

>  <path>  (887) 
/opt/xchem-fragalysis-2/maxwin/BulkDock/SCRATCH/505734/C3786-P130/C3786-P130.minimised.mol

>  <scratch_subdir>  (887) 
/opt/xchem-fragalysis-2/maxwin/BulkDock/SCRATCH/505734/C3786-P130

>  <fragmenstein_runtime>  (887) 
16.507039546966553

>  <fragmenstein_outcome>  (887) 
too moved

>  <fragmenstein_mode>  (887) 
expansion

>  <fragmenstein_error>  (887) 


$$$$
C3786-P189
     RDKit          3D

 58 62  0  0  0  0  0  0  0  0999 V2000
    3.0461   -0.9149   28.7372 C   0  0  0  0  0  0  0  0  0  0  0  0
    3.0159   -0.4888   30.1847 N   0  0  0  0  0  0  0  0  0  0  0  0
    3.4918    0.8254   29.5850 C   0  0  0  0  0  0  0  0  0  0  0  0
    2.4279    1.8196   29.1256 C   0  0  0  0  0  0  0  0  0  0  0  0
    1.7403    2.5945   30.0710 C   0  0  0  0  0  0  0  0  0  0  0  0
    0.7943    3.5351   29.6664 C   0  0  0  0  0  0  0  0  0  0  0  0
    0.4834    3.6848   28.3183 C   0  0  0  0  0  0  0  0  0  0  0  0
    1.1508    2.9208   27.3668 C   0  0  0  0  0  0  0  0  0  0  0  0
    2.1317    2.0090   27.7655 C   0  0  0  0  0  0  0  0  0  0  0  0
    1.7285   -0.8491   30.7871 C   0  0  0  0  0  0  0  0  0  0  0  0
    0.7299   -0.2334   30.8696 O   0  0  0  0  0  0  0  0  0  0  0  0
    2.0264   -2.2425   31.1693 N   0  0  0  0  0  0  0  0  0  0  0  0
    1.2084   -3.2357   31.6386 C   0  0  0  0  0  0  0  0  0  0  0  0
   -0.2053   -3.0359   31.3063 C   0  0  0  0  0  0  0  0  0  0  0  0
   -1.1180   -4.0093   31.3732 C   0  0  0  0  0  0  0  0  0  0  0  0
   -0.7276   -5.2927   31.7995 C   0  0  0  0  0  0  0  0  0  0  0  0
   -1.3411   -6.4552   31.8104 N   0  0  0  0  0  0  0  0  0  0  0  0
   -0.5115   -7.3633   32.4085 N   0  0  0  0  0  0  0  0  0  0  0  0
    0.5900   -6.7263   32.7316 C   0  0  0  0  0  0  0  0  0  0  0  0
    0.5535   -5.4270   32.2955 N   0  0  0  0  0  0  0  0  0  0  0  0
    1.5475   -4.4140   32.2291 C   0  0  0  0  0  0  0  0  0  0  0  0
    2.8542   -4.6762   32.7910 N   0  0  0  0  0  0  0  0  0  0  0  0
    4.1442   -4.0073   32.5558 C   0  0  0  0  0  0  0  0  0  0  0  0
    4.2777   -2.9385   33.6366 C   0  0  0  0  0  0  0  0  0  0  0  0
    3.8316   -3.5585   34.9718 C   0  0  0  0  0  0  0  0  0  0  0  0
    4.8988   -4.0181   35.9377 C   0  0  0  0  0  0  0  0  0  0  0  0
    4.5988   -4.0391   37.3120 C   0  0  0  0  0  0  0  0  0  0  0  0
    5.5443   -4.4628   38.2472 C   0  0  0  0  0  0  0  0  0  0  0  0
    6.8043   -4.8748   37.8257 C   0  0  0  0  0  0  0  0  0  0  0  0
    7.1178   -4.8654   36.4695 C   0  0  0  0  0  0  0  0  0  0  0  0
    6.1732   -4.4416   35.5310 C   0  0  0  0  0  0  0  0  0  0  0  0
    2.7746   -4.9685   34.5255 S   0  0  0  0  0  0  0  0  0  0  0  0
    1.4140   -4.7598   34.9679 O   0  0  0  0  0  0  0  0  0  0  0  0
    3.4394   -6.2426   34.7044 O   0  0  0  0  0  0  0  0  0  0  0  0
    2.2086   -0.5387   28.1388 H   0  0  0  0  0  0  0  0  0  0  0  0
    2.8346   -1.9956   28.7550 H   0  0  0  0  0  0  0  0  0  0  0  0
    4.0275   -0.8928   28.2414 H   0  0  0  0  0  0  0  0  0  0  0  0
    4.3903    0.8141   28.9445 H   0  0  0  0  0  0  0  0  0  0  0  0
    3.9197    1.3050   30.4815 H   0  0  0  0  0  0  0  0  0  0  0  0
    1.9421    2.4751   31.1331 H   0  0  0  0  0  0  0  0  0  0  0  0
    0.2972    4.1585   30.4040 H   0  0  0  0  0  0  0  0  0  0  0  0
   -0.2719    4.4069   28.0150 H   0  0  0  0  0  0  0  0  0  0  0  0
    0.9178    3.0516   26.3137 H   0  0  0  0  0  0  0  0  0  0  0  0
    2.6632    1.4513   26.9992 H   0  0  0  0  0  0  0  0  0  0  0  0
    3.0038   -2.4178   31.0365 H   0  0  0  0  0  0  0  0  0  0  0  0
   -0.5562   -2.0658   30.9700 H   0  0  0  0  0  0  0  0  0  0  0  0
   -2.1387   -3.7901   31.1001 H   0  0  0  0  0  0  0  0  0  0  0  0
    1.4290   -7.1480   33.2541 H   0  0  0  0  0  0  0  0  0  0  0  0
    4.2691   -3.6300   31.5426 H   0  0  0  0  0  0  0  0  0  0  0  0
    4.9377   -4.7556   32.6729 H   0  0  0  0  0  0  0  0  0  0  0  0
    3.6021   -2.1071   33.4027 H   0  0  0  0  0  0  0  0  0  0  0  0
    5.2861   -2.5146   33.6712 H   0  0  0  0  0  0  0  0  0  0  0  0
    3.1845   -2.8280   35.4740 H   0  0  0  0  0  0  0  0  0  0  0  0
    3.6185   -3.7296   37.6731 H   0  0  0  0  0  0  0  0  0  0  0  0
    5.2939   -4.4779   39.3054 H   0  0  0  0  0  0  0  0  0  0  0  0
    7.5389   -5.2103   38.5535 H   0  0  0  0  0  0  0  0  0  0  0  0
    8.1004   -5.1966   36.1417 H   0  0  0  0  0  0  0  0  0  0  0  0
    6.4598   -4.4641   34.4839 H   0  0  0  0  0  0  0  0  0  0  0  0
  1  2  1  0
  2  3  1  0
  3  4  1  0
  4  5  2  0
  5  6  1  0
  6  7  2  0
  7  8  1  0
  8  9  2  0
  2 10  1  0
 10 11  2  0
 10 12  1  0
 12 13  1  0
 13 14  1  0
 14 15  2  0
 15 16  1  0
 16 17  2  0
 17 18  1  0
 18 19  2  0
 19 20  1  0
 20 21  1  0
 21 22  1  0
 22 23  1  0
 23 24  1  0
 24 25  1  0
 25 26  1  0
 26 27  2  0
 27 28  1  0
 28 29  2  0
 29 30  1  0
 30 31  2  0
 25 32  1  0
 32 33  2  0
 32 34  2  0
  9  4  1  0
 21 13  2  0
 32 22  1  0
 20 16  1  0
 31 26  1  0
  1 35  1  0
  1 36  1  0
  1 37  1  0
  3 38  1  0
  3 39  1  0
  5 40  1  0
  6 41  1  0
  7 42  1  0
  8 43  1  0
  9 44  1  0
 12 45  1  0
 14 46  1  0
 15 47  1  0
 19 48  1  0
 23 49  1  0
 23 50  1  0
 24 51  1  0
 24 52  1  0
 25 53  1  0
 27 54  1  0
 28 55  1  0
 29 56  1  0
 30 57  1  0
 31 58  1  0
M  END
>  <Energy>  (888) 
115.10939520263882

>  <compound_id>  (888) 
3786

>  <target_id>  (888) 
1

>  <reference_id>  (888) 
189

>  <inspiration_ids>  (888) 
[130, 189]

>  <energy_score>  (888) 
29.498729425990604

>  <distance_score>  (888) 
3.4962851049453905

>  <path>  (888) 
/opt/xchem-fragalysis-2/maxwin/BulkDock/SCRATCH/505734/C3786-P189/C3786-P189.minimised.mol

>  <scratch_subdir>  (888) 
/opt/xchem-fragalysis-2/maxwin/BulkDock/SCRATCH/505734/C3786-P189

>  <fragmenstein_runtime>  (888) 
15.665897607803345

>  <fragmenstein_outcome>  (888) 
too moved

>  <fragmenstein_mode>  (888) 
expansion

>  <fragmenstein_error>  (888) 


$$$$
C3786-P130
     RDKit          3D

 58 62  0  0  0  0  0  0  0  0999 V2000
   -0.8686   -1.7593   28.9535 C   0  0  0  0  0  0  0  0  0  0  0  0
   -0.7209   -1.5142   30.4584 N   0  0  0  0  0  0  0  0  0  0  0  0
   -1.5378   -0.3051   30.1271 C   0  0  0  0  0  0  0  0  0  0  0  0
   -0.7968    0.8909   29.5614 C   0  0  0  0  0  0  0  0  0  0  0  0
    0.3737    1.3627   30.1699 C   0  0  0  0  0  0  0  0  0  0  0  0
    1.0275    2.4819   29.6562 C   0  0  0  0  0  0  0  0  0  0  0  0
    0.5194    3.1364   28.5344 C   0  0  0  0  0  0  0  0  0  0  0  0
   -0.6387    2.6707   27.9171 C   0  0  0  0  0  0  0  0  0  0  0  0
   -1.2932    1.5506   28.4248 C   0  0  0  0  0  0  0  0  0  0  0  0
   -1.0719   -2.7221   31.1971 C   0  0  0  0  0  0  0  0  0  0  0  0
   -2.1072   -3.0752   31.6344 O   0  0  0  0  0  0  0  0  0  0  0  0
    0.2171   -3.4018   31.1459 N   0  0  0  0  0  0  0  0  0  0  0  0
    0.5736   -4.6718   31.5030 C   0  0  0  0  0  0  0  0  0  0  0  0
    1.4512   -5.1893   30.4606 C   0  0  0  0  0  0  0  0  0  0  0  0
    1.1832   -6.3626   29.8831 C   0  0  0  0  0  0  0  0  0  0  0  0
    0.1534   -7.1744   30.4134 C   0  0  0  0  0  0  0  0  0  0  0  0
   -0.3945   -8.2805   29.9700 N   0  0  0  0  0  0  0  0  0  0  0  0
   -1.2850   -8.7019   30.9143 N   0  0  0  0  0  0  0  0  0  0  0  0
   -1.2770   -7.8278   31.8945 C   0  0  0  0  0  0  0  0  0  0  0  0
   -0.4079   -6.8044   31.6310 N   0  0  0  0  0  0  0  0  0  0  0  0
   -0.1552   -5.5507   32.2382 C   0  0  0  0  0  0  0  0  0  0  0  0
   -0.6003   -5.1569   33.5692 N   0  0  0  0  0  0  0  0  0  0  0  0
   -0.0896   -3.9093   34.2109 C   0  0  0  0  0  0  0  0  0  0  0  0
   -0.5107   -3.9623   35.6774 C   0  0  0  0  0  0  0  0  0  0  0  0
   -0.2497   -5.3724   36.2002 C   0  0  0  0  0  0  0  0  0  0  0  0
    1.0592   -5.6735   36.8998 C   0  0  0  0  0  0  0  0  0  0  0  0
    2.1832   -4.8379   36.8346 C   0  0  0  0  0  0  0  0  0  0  0  0
    3.3659   -5.1806   37.4972 C   0  0  0  0  0  0  0  0  0  0  0  0
    3.4450   -6.3614   38.2318 C   0  0  0  0  0  0  0  0  0  0  0  0
    2.3409   -7.2034   38.3082 C   0  0  0  0  0  0  0  0  0  0  0  0
    1.1585   -6.8610   37.6519 C   0  0  0  0  0  0  0  0  0  0  0  0
   -0.4148   -6.4394   34.7479 S   0  0  0  0  0  0  0  0  0  0  0  0
   -1.6623   -7.1640   34.8324 O   0  0  0  0  0  0  0  0  0  0  0  0
    0.8323   -7.1138   34.4307 O   0  0  0  0  0  0  0  0  0  0  0  0
   -0.3215   -1.0631   28.3077 H   0  0  0  0  0  0  0  0  0  0  0  0
   -0.3505   -2.7104   28.7577 H   0  0  0  0  0  0  0  0  0  0  0  0
   -1.8935   -1.9886   28.6237 H   0  0  0  0  0  0  0  0  0  0  0  0
   -1.8532    0.0337   31.1280 H   0  0  0  0  0  0  0  0  0  0  0  0
   -2.5177   -0.4986   29.6810 H   0  0  0  0  0  0  0  0  0  0  0  0
    0.7740    0.8656   31.0500 H   0  0  0  0  0  0  0  0  0  0  0  0
    1.9287    2.8549   30.1357 H   0  0  0  0  0  0  0  0  0  0  0  0
    1.0193    4.0210   28.1478 H   0  0  0  0  0  0  0  0  0  0  0  0
   -1.0450    3.1927   27.0540 H   0  0  0  0  0  0  0  0  0  0  0  0
   -2.2010    1.2106   27.9316 H   0  0  0  0  0  0  0  0  0  0  0  0
    0.8711   -2.8330   30.6223 H   0  0  0  0  0  0  0  0  0  0  0  0
    2.2617   -4.5685   30.0905 H   0  0  0  0  0  0  0  0  0  0  0  0
    1.7685   -6.7145   29.0431 H   0  0  0  0  0  0  0  0  0  0  0  0
   -1.9165   -7.8930   32.7540 H   0  0  0  0  0  0  0  0  0  0  0  0
    1.0007   -3.8493   34.1238 H   0  0  0  0  0  0  0  0  0  0  0  0
   -0.5330   -3.0199   33.7612 H   0  0  0  0  0  0  0  0  0  0  0  0
   -1.5886   -3.7664   35.7316 H   0  0  0  0  0  0  0  0  0  0  0  0
   -0.0304   -3.1791   36.2720 H   0  0  0  0  0  0  0  0  0  0  0  0
   -1.0665   -5.6290   36.8851 H   0  0  0  0  0  0  0  0  0  0  0  0
    2.1723   -3.9100   36.2707 H   0  0  0  0  0  0  0  0  0  0  0  0
    4.2313   -4.5249   37.4382 H   0  0  0  0  0  0  0  0  0  0  0  0
    4.3669   -6.6275   38.7423 H   0  0  0  0  0  0  0  0  0  0  0  0
    2.3949   -8.1325   38.8725 H   0  0  0  0  0  0  0  0  0  0  0  0
    0.3162   -7.5496   37.7220 H   0  0  0  0  0  0  0  0  0  0  0  0
  1  2  1  0
  2  3  1  0
  3  4  1  0
  4  5  2  0
  5  6  1  0
  6  7  2  0
  7  8  1  0
  8  9  2  0
  2 10  1  0
 10 11  2  0
 10 12  1  0
 12 13  1  0
 13 14  1  0
 14 15  2  0
 15 16  1  0
 16 17  2  0
 17 18  1  0
 18 19  2  0
 19 20  1  0
 20 21  1  0
 21 22  1  0
 22 23  1  0
 23 24  1  0
 24 25  1  0
 25 26  1  0
 26 27  2  0
 27 28  1  0
 28 29  2  0
 29 30  1  0
 30 31  2  0
 25 32  1  0
 32 33  2  0
 32 34  2  0
  9  4  1  0
 21 13  2  0
 32 22  1  0
 20 16  1  0
 31 26  1  0
  1 35  1  0
  1 36  1  0
  1 37  1  0
  3 38  1  0
  3 39  1  0
  5 40  1  0
  6 41  1  0
  7 42  1  0
  8 43  1  0
  9 44  1  0
 12 45  1  0
 14 46  1  0
 15 47  1  0
 19 48  1  0
 23 49  1  0
 23 50  1  0
 24 51  1  0
 24 52  1  0
 25 53  1  0
 27 54  1  0
 28 55  1  0
 29 56  1  0
 30 57  1  0
 31 58  1  0
M  END
>  <Energy>  (889) 
120.77917335742062

>  <compound_id>  (889) 
3786

>  <target_id>  (889) 
1

>  <reference_id>  (889) 
130

>  <inspiration_ids>  (889) 
[130, 190]

>  <energy_score>  (889) 
26.414758971267702

>  <distance_score>  (889) 
1.4434376562930673

>  <path>  (889) 
/opt/xchem-fragalysis-2/maxwin/BulkDock/SCRATCH/505734/C3786-P130/C3786-P130.minimised.mol

>  <scratch_subdir>  (889) 
/opt/xchem-fragalysis-2/maxwin/BulkDock/SCRATCH/505734/C3786-P130

>  <fragmenstein_runtime>  (889) 
14.794432878494263

>  <fragmenstein_outcome>  (889) 
too moved

>  <fragmenstein_mode>  (889) 
expansion

>  <fragmenstein_error>  (889) 


$$$$
C3786-P190
     RDKit          3D

 58 62  0  0  0  0  0  0  0  0999 V2000
   -0.8880   -1.8032   28.9377 C   0  0  0  0  0  0  0  0  0  0  0  0
   -0.6339   -1.5986   30.4298 N   0  0  0  0  0  0  0  0  0  0  0  0
   -1.3678   -0.3173   30.1628 C   0  0  0  0  0  0  0  0  0  0  0  0
   -0.5771    0.8396   29.5872 C   0  0  0  0  0  0  0  0  0  0  0  0
    0.6120    1.2661   30.1901 C   0  0  0  0  0  0  0  0  0  0  0  0
    1.3064    2.3583   29.6712 C   0  0  0  0  0  0  0  0  0  0  0  0
    0.8211    3.0294   28.5489 C   0  0  0  0  0  0  0  0  0  0  0  0
   -0.3554    2.6071   27.9360 C   0  0  0  0  0  0  0  0  0  0  0  0
   -1.0507    1.5151   28.4497 C   0  0  0  0  0  0  0  0  0  0  0  0
   -1.0414   -2.7889   31.1742 C   0  0  0  0  0  0  0  0  0  0  0  0
   -2.0750   -3.0620   31.6674 O   0  0  0  0  0  0  0  0  0  0  0  0
    0.1833   -3.5751   31.0395 N   0  0  0  0  0  0  0  0  0  0  0  0
    0.4502   -4.8747   31.3612 C   0  0  0  0  0  0  0  0  0  0  0  0
    1.2105   -5.4938   30.2805 C   0  0  0  0  0  0  0  0  0  0  0  0
    0.9224   -6.7332   29.8715 C   0  0  0  0  0  0  0  0  0  0  0  0
   -0.0638   -7.4698   30.5521 C   0  0  0  0  0  0  0  0  0  0  0  0
   -0.6864   -8.5795   30.2439 N   0  0  0  0  0  0  0  0  0  0  0  0
   -1.4843   -8.9022   31.3006 N   0  0  0  0  0  0  0  0  0  0  0  0
   -1.3371   -7.9731   32.2175 C   0  0  0  0  0  0  0  0  0  0  0  0
   -0.4952   -6.9871   31.7797 N   0  0  0  0  0  0  0  0  0  0  0  0
   -0.1901   -5.6823   32.2471 C   0  0  0  0  0  0  0  0  0  0  0  0
   -0.5394   -5.2035   33.5749 N   0  0  0  0  0  0  0  0  0  0  0  0
   -0.2256   -3.8472   34.1117 C   0  0  0  0  0  0  0  0  0  0  0  0
    0.7466   -4.0151   35.2779 C   0  0  0  0  0  0  0  0  0  0  0  0
    0.2308   -5.1827   36.1101 C   0  0  0  0  0  0  0  0  0  0  0  0
    1.1881   -5.7947   37.1165 C   0  0  0  0  0  0  0  0  0  0  0  0
    2.3370   -5.1142   37.5544 C   0  0  0  0  0  0  0  0  0  0  0  0
    3.1935   -5.6796   38.5048 C   0  0  0  0  0  0  0  0  0  0  0  0
    2.9123   -6.9297   39.0471 C   0  0  0  0  0  0  0  0  0  0  0  0
    1.7696   -7.6119   38.6471 C   0  0  0  0  0  0  0  0  0  0  0  0
    0.9132   -7.0450   37.7006 C   0  0  0  0  0  0  0  0  0  0  0  0
   -0.2216   -6.3776   34.8367 S   0  0  0  0  0  0  0  0  0  0  0  0
   -1.4753   -7.0082   35.1970 O   0  0  0  0  0  0  0  0  0  0  0  0
    0.9336   -7.1540   34.4222 O   0  0  0  0  0  0  0  0  0  0  0  0
   -0.3170   -1.1421   28.2759 H   0  0  0  0  0  0  0  0  0  0  0  0
   -0.4651   -2.7908   28.6998 H   0  0  0  0  0  0  0  0  0  0  0  0
   -1.9425   -1.9362   28.6586 H   0  0  0  0  0  0  0  0  0  0  0  0
   -1.6015    0.0170   31.1879 H   0  0  0  0  0  0  0  0  0  0  0  0
   -2.3872   -0.4120   29.7739 H   0  0  0  0  0  0  0  0  0  0  0  0
    0.9955    0.7563   31.0705 H   0  0  0  0  0  0  0  0  0  0  0  0
    2.2235    2.6965   30.1466 H   0  0  0  0  0  0  0  0  0  0  0  0
    1.3554    3.8915   28.1575 H   0  0  0  0  0  0  0  0  0  0  0  0
   -0.7426    3.1407   27.0712 H   0  0  0  0  0  0  0  0  0  0  0  0
   -1.9725    1.2084   27.9604 H   0  0  0  0  0  0  0  0  0  0  0  0
    0.8520   -3.0548   30.4847 H   0  0  0  0  0  0  0  0  0  0  0  0
    1.9836   -4.9212   29.7766 H   0  0  0  0  0  0  0  0  0  0  0  0
    1.4541   -7.2049   29.0556 H   0  0  0  0  0  0  0  0  0  0  0  0
   -1.8582   -7.9696   33.1568 H   0  0  0  0  0  0  0  0  0  0  0  0
    0.2409   -3.1681   33.4036 H   0  0  0  0  0  0  0  0  0  0  0  0
   -1.1571   -3.3873   34.4577 H   0  0  0  0  0  0  0  0  0  0  0  0
    0.8188   -3.0935   35.8650 H   0  0  0  0  0  0  0  0  0  0  0  0
    1.7450   -4.2336   34.8759 H   0  0  0  0  0  0  0  0  0  0  0  0
   -0.6957   -4.8942   36.6218 H   0  0  0  0  0  0  0  0  0  0  0  0
    2.5917   -4.1285   37.1733 H   0  0  0  0  0  0  0  0  0  0  0  0
    4.0801   -5.1391   38.8271 H   0  0  0  0  0  0  0  0  0  0  0  0
    3.5763   -7.3697   39.7863 H   0  0  0  0  0  0  0  0  0  0  0  0
    1.5369   -8.5884   39.0704 H   0  0  0  0  0  0  0  0  0  0  0  0
    0.0304   -7.6162   37.4236 H   0  0  0  0  0  0  0  0  0  0  0  0
  1  2  1  0
  2  3  1  0
  3  4  1  0
  4  5  2  0
  5  6  1  0
  6  7  2  0
  7  8  1  0
  8  9  2  0
  2 10  1  0
 10 11  2  0
 10 12  1  0
 12 13  1  0
 13 14  1  0
 14 15  2  0
 15 16  1  0
 16 17  2  0
 17 18  1  0
 18 19  2  0
 19 20  1  0
 20 21  1  0
 21 22  1  0
 22 23  1  0
 23 24  1  0
 24 25  1  0
 25 26  1  0
 26 27  2  0
 27 28  1  0
 28 29  2  0
 29 30  1  0
 30 31  2  0
 25 32  1  0
 32 33  2  0
 32 34  2  0
  9  4  1  0
 21 13  2  0
 32 22  1  0
 20 16  1  0
 31 26  1  0
  1 35  1  0
  1 36  1  0
  1 37  1  0
  3 38  1  0
  3 39  1  0
  5 40  1  0
  6 41  1  0
  7 42  1  0
  8 43  1  0
  9 44  1  0
 12 45  1  0
 14 46  1  0
 15 47  1  0
 19 48  1  0
 23 49  1  0
 23 50  1  0
 24 51  1  0
 24 52  1  0
 25 53  1  0
 27 54  1  0
 28 55  1  0
 29 56  1  0
 30 57  1  0
 31 58  1  0
M  END
>  <Energy>  (890) 
117.62191266280784

>  <compound_id>  (890) 
3786

>  <target_id>  (890) 
1

>  <reference_id>  (890) 
190

>  <inspiration_ids>  (890) 
[130, 190]

>  <energy_score>  (890) 
23.257498276651262

>  <distance_score>  (890) 
1.4489113094087955

>  <path>  (890) 
/opt/xchem-fragalysis-2/maxwin/BulkDock/SCRATCH/505734/C3786-P190/C3786-P190.minimised.mol

>  <scratch_subdir>  (890) 
/opt/xchem-fragalysis-2/maxwin/BulkDock/SCRATCH/505734/C3786-P190

>  <fragmenstein_runtime>  (890) 
9.470646858215332

>  <fragmenstein_outcome>  (890) 
too moved

>  <fragmenstein_mode>  (890) 
expansion

>  <fragmenstein_error>  (890) 


$$$$
C3787-P130
     RDKit          3D

 62 66  0  0  0  0  0  0  0  0999 V2000
   -0.4288   -2.8529   29.0434 C   0  0  0  0  0  0  0  0  0  0  0  0
   -0.3837   -1.5252   29.7511 N   0  0  0  0  0  0  0  0  0  0  0  0
   -0.9160   -1.0417   28.4224 C   0  0  0  0  0  0  0  0  0  0  0  0
   -0.8800    0.4890   28.3736 C   0  0  0  0  0  0  0  0  0  0  0  0
    0.0535    1.2423   29.1011 C   0  0  0  0  0  0  0  0  0  0  0  0
    0.0966    2.6316   28.9756 C   0  0  0  0  0  0  0  0  0  0  0  0
   -0.7883    3.2836   28.1194 C   0  0  0  0  0  0  0  0  0  0  0  0
   -1.7042    2.5479   27.3728 C   0  0  0  0  0  0  0  0  0  0  0  0
   -1.7375    1.1586   27.4865 C   0  0  0  0  0  0  0  0  0  0  0  0
   -1.0328   -1.6295   31.0477 C   0  0  0  0  0  0  0  0  0  0  0  0
   -2.1518   -1.4458   31.3547 O   0  0  0  0  0  0  0  0  0  0  0  0
    0.1194   -1.9710   31.8537 N   0  0  0  0  0  0  0  0  0  0  0  0
    0.2299   -2.2806   33.2508 C   0  0  0  0  0  0  0  0  0  0  0  0
   -0.0781   -3.7521   33.5384 C   0  0  0  0  0  0  0  0  0  0  0  0
    0.7101   -4.7266   32.6358 C   0  0  0  0  0  0  0  0  0  0  0  0
    1.2502   -5.8277   33.5444 C   0  0  0  0  0  0  0  0  0  0  0  0
    0.4487   -5.6985   34.8596 C   0  0  0  0  0  0  0  0  0  0  0  0
    1.1890   -6.3151   36.0338 C   0  0  0  0  0  0  0  0  0  0  0  0
    0.9069   -7.7333   35.8466 N   0  0  0  0  0  0  0  0  0  0  0  0
   -0.4936   -7.7960   35.4905 N   0  0  0  0  0  0  0  0  0  0  0  0
   -0.8218   -6.5541   34.7836 C   0  0  0  0  0  0  0  0  0  0  0  0
    0.2902   -4.1724   34.9736 C   0  0  0  0  0  0  0  0  0  0  0  0
   -0.8951   -3.6057   36.2436 S   0  0  0  0  0  0  0  0  0  0  0  0
   -0.2947   -2.0285   36.6438 C   0  0  0  0  0  0  0  0  0  0  0  0
    0.8978   -1.5680   36.3261 N   0  0  0  0  0  0  0  0  0  0  0  0
    0.9636   -0.2785   36.8076 N   0  0  0  0  0  0  0  0  0  0  0  0
   -0.1923   -0.0362   37.3976 C   0  0  0  0  0  0  0  0  0  0  0  0
   -0.5209    1.2017   38.0203 C   0  0  0  0  0  0  0  0  0  0  0  0
   -1.6707    1.5964   38.6747 C   0  0  0  0  0  0  0  0  0  0  0  0
   -1.4801    2.9331   39.1053 C   0  0  0  0  0  0  0  0  0  0  0  0
   -0.2208    3.3181   38.7028 C   0  0  0  0  0  0  0  0  0  0  0  0
    0.3542    2.2604   38.0469 N   0  0  0  0  0  0  0  0  0  0  0  0
   -1.0392   -1.1118   37.3326 O   0  0  0  0  0  0  0  0  0  0  0  0
   -0.1178   -3.6004   29.7885 H   0  0  0  0  0  0  0  0  0  0  0  0
   -1.4339   -3.1970   28.7695 H   0  0  0  0  0  0  0  0  0  0  0  0
    0.3351   -2.9657   28.2631 H   0  0  0  0  0  0  0  0  0  0  0  0
   -1.9750   -1.3177   28.3007 H   0  0  0  0  0  0  0  0  0  0  0  0
   -0.2865   -1.2956   27.5625 H   0  0  0  0  0  0  0  0  0  0  0  0
    0.7551    0.7552   29.7729 H   0  0  0  0  0  0  0  0  0  0  0  0
    0.8090    3.2106   29.5569 H   0  0  0  0  0  0  0  0  0  0  0  0
   -0.7763    4.3684   28.0464 H   0  0  0  0  0  0  0  0  0  0  0  0
   -2.4021    3.0594   26.7136 H   0  0  0  0  0  0  0  0  0  0  0  0
   -2.4426    0.5975   26.8781 H   0  0  0  0  0  0  0  0  0  0  0  0
    0.9443   -1.9709   31.2682 H   0  0  0  0  0  0  0  0  0  0  0  0
    1.2495   -2.0218   33.5536 H   0  0  0  0  0  0  0  0  0  0  0  0
   -0.4729   -1.6330   33.7830 H   0  0  0  0  0  0  0  0  0  0  0  0
   -1.1455   -3.9292   33.3496 H   0  0  0  0  0  0  0  0  0  0  0  0
    0.0423   -5.1502   31.8764 H   0  0  0  0  0  0  0  0  0  0  0  0
    1.5399   -4.2454   32.1069 H   0  0  0  0  0  0  0  0  0  0  0  0
    1.1657   -6.8118   33.0722 H   0  0  0  0  0  0  0  0  0  0  0  0
    2.3176   -5.6458   33.7242 H   0  0  0  0  0  0  0  0  0  0  0  0
    2.2661   -6.1220   36.0164 H   0  0  0  0  0  0  0  0  0  0  0  0
    0.7966   -5.9772   37.0004 H   0  0  0  0  0  0  0  0  0  0  0  0
    1.0842   -8.2234   36.7325 H   0  0  0  0  0  0  0  0  0  0  0  0
   -0.7507   -8.6362   34.9472 H   0  0  0  0  0  0  0  0  0  0  0  0
   -1.6670   -6.1076   35.3063 H   0  0  0  0  0  0  0  0  0  0  0  0
   -1.1358   -6.7616   33.7548 H   0  0  0  0  0  0  0  0  0  0  0  0
    1.2786   -3.7668   35.2276 H   0  0  0  0  0  0  0  0  0  0  0  0
   -2.5531    0.9875   38.8276 H   0  0  0  0  0  0  0  0  0  0  0  0
   -2.1852    3.5472   39.6510 H   0  0  0  0  0  0  0  0  0  0  0  0
    0.3156    4.2497   38.8273 H   0  0  0  0  0  0  0  0  0  0  0  0
    1.2813    2.2487   37.6390 H   0  0  0  0  0  0  0  0  0  0  0  0
  1  2  1  0
  2  3  1  0
  3  4  1  0
  4  5  2  0
  5  6  1  0
  6  7  2  0
  7  8  1  0
  8  9  2  0
  2 10  1  0
 10 11  2  0
 10 12  1  0
 12 13  1  0
 13 14  1  0
 14 15  1  0
 15 16  1  0
 16 17  1  0
 17 18  1  0
 18 19  1  0
 19 20  1  0
 20 21  1  0
 17 22  1  0
 22 23  1  0
 23 24  1  0
 24 25  2  0
 25 26  1  0
 26 27  2  0
 27 28  1  0
 28 29  2  0
 29 30  1  0
 30 31  2  0
 31 32  1  0
 27 33  1  0
  9  4  1  0
 22 14  1  0
 33 24  1  0
 21 17  1  0
 32 28  1  0
  1 34  1  0
  1 35  1  0
  1 36  1  0
  3 37  1  0
  3 38  1  0
  5 39  1  0
  6 40  1  0
  7 41  1  0
  8 42  1  0
  9 43  1  0
 12 44  1  0
 13 45  1  0
 13 46  1  0
 14 47  1  0
 15 48  1  0
 15 49  1  0
 16 50  1  0
 16 51  1  0
 18 52  1  0
 18 53  1  0
 19 54  1  0
 20 55  1  0
 21 56  1  0
 21 57  1  0
 22 58  1  0
 29 59  1  0
 30 60  1  0
 31 61  1  0
 32 62  1  0
M  END
>  <Energy>  (891) 
67.401990996445889

>  <compound_id>  (891) 
3787

>  <target_id>  (891) 
1

>  <reference_id>  (891) 
130

>  <inspiration_ids>  (891) 
[130, 194]

>  <energy_score>  (891) 
-12.689929074480403

>  <distance_score>  (891) 
2.348119927561044

>  <path>  (891) 
/opt/xchem-fragalysis-2/maxwin/BulkDock/SCRATCH/505734/C3787-P130/C3787-P130.minimised.mol

>  <scratch_subdir>  (891) 
/opt/xchem-fragalysis-2/maxwin/BulkDock/SCRATCH/505734/C3787-P130

>  <fragmenstein_runtime>  (891) 
15.32220458984375

>  <fragmenstein_outcome>  (891) 
too moved

>  <fragmenstein_mode>  (891) 
expansion

>  <fragmenstein_error>  (891) 


$$$$
C3787-P194
     RDKit          3D

 62 66  0  0  0  0  0  0  0  0999 V2000
    0.2452   -1.9849   28.6037 C   0  0  0  0  0  0  0  0  0  0  0  0
   -0.5056   -1.4299   29.7786 N   0  0  0  0  0  0  0  0  0  0  0  0
   -1.4367   -0.9728   28.6958 C   0  0  0  0  0  0  0  0  0  0  0  0
   -1.2246    0.4707   28.2603 C   0  0  0  0  0  0  0  0  0  0  0  0
   -0.4943    1.3846   29.0351 C   0  0  0  0  0  0  0  0  0  0  0  0
   -0.3950    2.7232   28.6516 C   0  0  0  0  0  0  0  0  0  0  0  0
   -1.0460    3.1696   27.5049 C   0  0  0  0  0  0  0  0  0  0  0  0
   -1.7777    2.2754   26.7287 C   0  0  0  0  0  0  0  0  0  0  0  0
   -1.8549    0.9324   27.0981 C   0  0  0  0  0  0  0  0  0  0  0  0
   -0.6692   -2.4516   30.7918 C   0  0  0  0  0  0  0  0  0  0  0  0
   -1.5363   -3.2303   30.9557 O   0  0  0  0  0  0  0  0  0  0  0  0
    0.5052   -2.1636   31.5953 N   0  0  0  0  0  0  0  0  0  0  0  0
    0.9155   -2.6691   32.8740 C   0  0  0  0  0  0  0  0  0  0  0  0
    0.1809   -3.9174   33.3542 C   0  0  0  0  0  0  0  0  0  0  0  0
    0.5721   -5.1653   32.5328 C   0  0  0  0  0  0  0  0  0  0  0  0
    1.1122   -6.1794   33.5340 C   0  0  0  0  0  0  0  0  0  0  0  0
    0.4667   -5.7755   34.8787 C   0  0  0  0  0  0  0  0  0  0  0  0
    1.1811   -6.3847   36.0699 C   0  0  0  0  0  0  0  0  0  0  0  0
    0.6942   -7.7565   36.0494 N   0  0  0  0  0  0  0  0  0  0  0  0
   -0.6966   -7.7065   35.6301 N   0  0  0  0  0  0  0  0  0  0  0  0
   -0.9208   -6.3964   35.0035 C   0  0  0  0  0  0  0  0  0  0  0  0
    0.5582   -4.2433   34.8070 C   0  0  0  0  0  0  0  0  0  0  0  0
   -0.1835   -3.3171   36.1982 S   0  0  0  0  0  0  0  0  0  0  0  0
   -1.5326   -2.4151   35.5896 C   0  0  0  0  0  0  0  0  0  0  0  0
   -1.5675   -1.7198   34.4723 N   0  0  0  0  0  0  0  0  0  0  0  0
   -2.8117   -1.1234   34.4075 N   0  0  0  0  0  0  0  0  0  0  0  0
   -3.4410   -1.4562   35.5173 C   0  0  0  0  0  0  0  0  0  0  0  0
   -4.7689   -1.0495   35.8380 C   0  0  0  0  0  0  0  0  0  0  0  0
   -5.4498   -1.1038   37.0384 C   0  0  0  0  0  0  0  0  0  0  0  0
   -6.7492   -0.5834   36.8188 C   0  0  0  0  0  0  0  0  0  0  0  0
   -6.8263   -0.2255   35.4920 C   0  0  0  0  0  0  0  0  0  0  0  0
   -5.6176   -0.5039   34.9064 N   0  0  0  0  0  0  0  0  0  0  0  0
   -2.6722   -2.2461   36.3301 O   0  0  0  0  0  0  0  0  0  0  0  0
    0.5784   -1.2549   27.8538 H   0  0  0  0  0  0  0  0  0  0  0  0
    1.1945   -2.3595   29.0168 H   0  0  0  0  0  0  0  0  0  0  0  0
   -0.2155   -2.8985   28.1994 H   0  0  0  0  0  0  0  0  0  0  0  0
   -2.3805   -0.9261   29.2583 H   0  0  0  0  0  0  0  0  0  0  0  0
   -1.7293   -1.6652   27.8871 H   0  0  0  0  0  0  0  0  0  0  0  0
   -0.0156    1.0684   29.9583 H   0  0  0  0  0  0  0  0  0  0  0  0
    0.1582    3.4283   29.2669 H   0  0  0  0  0  0  0  0  0  0  0  0
   -1.0039    4.2200   27.2274 H   0  0  0  0  0  0  0  0  0  0  0  0
   -2.3065    2.6303   25.8475 H   0  0  0  0  0  0  0  0  0  0  0  0
   -2.4244    0.2444   26.4785 H   0  0  0  0  0  0  0  0  0  0  0  0
    0.9933   -1.3725   31.1963 H   0  0  0  0  0  0  0  0  0  0  0  0
    1.9935   -2.8567   32.8019 H   0  0  0  0  0  0  0  0  0  0  0  0
    0.7978   -1.8395   33.5770 H   0  0  0  0  0  0  0  0  0  0  0  0
   -0.9035   -3.8001   33.2703 H   0  0  0  0  0  0  0  0  0  0  0  0
   -0.3179   -5.5696   32.0353 H   0  0  0  0  0  0  0  0  0  0  0  0
    1.3096   -4.9607   31.7495 H   0  0  0  0  0  0  0  0  0  0  0  0
    0.8797   -7.2022   33.2231 H   0  0  0  0  0  0  0  0  0  0  0  0
    2.2045   -6.0888   33.5883 H   0  0  0  0  0  0  0  0  0  0  0  0
    2.2714   -6.3534   35.9800 H   0  0  0  0  0  0  0  0  0  0  0  0
    0.9015   -5.9093   37.0168 H   0  0  0  0  0  0  0  0  0  0  0  0
    0.7914   -8.1717   36.9839 H   0  0  0  0  0  0  0  0  0  0  0  0
   -0.9233   -8.4809   34.9844 H   0  0  0  0  0  0  0  0  0  0  0  0
   -1.5667   -5.8195   35.6701 H   0  0  0  0  0  0  0  0  0  0  0  0
   -1.4362   -6.5095   34.0451 H   0  0  0  0  0  0  0  0  0  0  0  0
    1.6257   -4.0010   34.9211 H   0  0  0  0  0  0  0  0  0  0  0  0
   -5.0488   -1.4714   37.9758 H   0  0  0  0  0  0  0  0  0  0  0  0
   -7.5375   -0.4700   37.5522 H   0  0  0  0  0  0  0  0  0  0  0  0
   -7.6252    0.2197   34.9119 H   0  0  0  0  0  0  0  0  0  0  0  0
   -5.3834   -0.3408   33.9349 H   0  0  0  0  0  0  0  0  0  0  0  0
  1  2  1  0
  2  3  1  0
  3  4  1  0
  4  5  2  0
  5  6  1  0
  6  7  2  0
  7  8  1  0
  8  9  2  0
  2 10  1  0
 10 11  2  0
 10 12  1  0
 12 13  1  0
 13 14  1  0
 14 15  1  0
 15 16  1  0
 16 17  1  0
 17 18  1  0
 18 19  1  0
 19 20  1  0
 20 21  1  0
 17 22  1  0
 22 23  1  0
 23 24  1  0
 24 25  2  0
 25 26  1  0
 26 27  2  0
 27 28  1  0
 28 29  2  0
 29 30  1  0
 30 31  2  0
 31 32  1  0
 27 33  1  0
  9  4  1  0
 22 14  1  0
 33 24  1  0
 21 17  1  0
 32 28  1  0
  1 34  1  0
  1 35  1  0
  1 36  1  0
  3 37  1  0
  3 38  1  0
  5 39  1  0
  6 40  1  0
  7 41  1  0
  8 42  1  0
  9 43  1  0
 12 44  1  0
 13 45  1  0
 13 46  1  0
 14 47  1  0
 15 48  1  0
 15 49  1  0
 16 50  1  0
 16 51  1  0
 18 52  1  0
 18 53  1  0
 19 54  1  0
 20 55  1  0
 21 56  1  0
 21 57  1  0
 22 58  1  0
 29 59  1  0
 30 60  1  0
 31 61  1  0
 32 62  1  0
M  END
>  <Energy>  (892) 
79.288514949897277

>  <compound_id>  (892) 
3787

>  <target_id>  (892) 
1

>  <reference_id>  (892) 
194

>  <inspiration_ids>  (892) 
[130, 194]

>  <energy_score>  (892) 
-0.803405121029698

>  <distance_score>  (892) 
2.340259611193861

>  <path>  (892) 
/opt/xchem-fragalysis-2/maxwin/BulkDock/SCRATCH/505734/C3787-P194/C3787-P194.minimised.mol

>  <scratch_subdir>  (892) 
/opt/xchem-fragalysis-2/maxwin/BulkDock/SCRATCH/505734/C3787-P194

>  <fragmenstein_runtime>  (892) 
12.99308443069458

>  <fragmenstein_outcome>  (892) 
too moved

>  <fragmenstein_mode>  (892) 
expansion

>  <fragmenstein_error>  (892) 


$$$$
C3761-P130
     RDKit          3D

 64 68  0  0  0  0  0  0  0  0999 V2000
   -0.7638   -2.2023   29.4574 C   0  0  0  0  0  0  0  0  0  0  0  0
   -1.0046   -1.3572   30.6905 N   0  0  0  0  0  0  0  0  0  0  0  0
   -1.7570   -0.5160   29.7046 C   0  0  0  0  0  0  0  0  0  0  0  0
   -0.9580    0.6173   29.0792 C   0  0  0  0  0  0  0  0  0  0  0  0
    0.1782    1.1498   29.7054 C   0  0  0  0  0  0  0  0  0  0  0  0
    0.8439    2.2429   29.1514 C   0  0  0  0  0  0  0  0  0  0  0  0
    0.3745    2.8238   27.9753 C   0  0  0  0  0  0  0  0  0  0  0  0
   -0.7532    2.3056   27.3441 C   0  0  0  0  0  0  0  0  0  0  0  0
   -1.4118    1.2036   27.8878 C   0  0  0  0  0  0  0  0  0  0  0  0
   -1.4833   -2.1925   31.7831 C   0  0  0  0  0  0  0  0  0  0  0  0
   -2.5800   -2.4770   32.0991 O   0  0  0  0  0  0  0  0  0  0  0  0
   -0.2084   -2.4896   32.4206 N   0  0  0  0  0  0  0  0  0  0  0  0
    0.1043   -3.2966   33.5710 C   0  0  0  0  0  0  0  0  0  0  0  0
    0.2224   -4.7331   33.1118 C   0  0  0  0  0  0  0  0  0  0  0  0
   -0.7454   -5.6542   33.7256 C   0  0  0  0  0  0  0  0  0  0  0  0
   -1.0968   -6.8173   33.1535 C   0  0  0  0  0  0  0  0  0  0  0  0
   -0.5803   -7.1290   31.8796 C   0  0  0  0  0  0  0  0  0  0  0  0
   -0.8673   -8.0759   31.0148 N   0  0  0  0  0  0  0  0  0  0  0  0
   -0.0338   -7.9112   29.9388 N   0  0  0  0  0  0  0  0  0  0  0  0
    0.7304   -6.8699   30.1825 C   0  0  0  0  0  0  0  0  0  0  0  0
    0.4519   -6.3338   31.4008 N   0  0  0  0  0  0  0  0  0  0  0  0
    0.9530   -5.2009   32.0656 C   0  0  0  0  0  0  0  0  0  0  0  0
    2.2976   -4.6690   31.8271 N   0  0  0  0  0  0  0  0  0  0  0  0
    3.1982   -4.5083   33.0119 C   0  0  0  0  0  0  0  0  0  0  0  0
    4.3153   -3.4882   32.8212 C   0  0  0  0  0  0  0  0  0  0  0  0
    5.0996   -3.7343   31.5405 C   0  0  0  0  0  0  0  0  0  0  0  0
    4.2789   -3.5591   30.2568 C   0  0  0  0  0  0  0  0  0  0  0  0
    4.5790   -2.2987   29.4584 C   0  0  0  0  0  0  0  0  0  0  0  0
    4.5286   -2.3388   28.0536 C   0  0  0  0  0  0  0  0  0  0  0  0
    4.7257   -1.1809   27.2979 C   0  0  0  0  0  0  0  0  0  0  0  0
    4.9781    0.0313   27.9340 C   0  0  0  0  0  0  0  0  0  0  0  0
    5.0379    0.0892   29.3224 C   0  0  0  0  0  0  0  0  0  0  0  0
    4.8376   -1.0653   30.0798 C   0  0  0  0  0  0  0  0  0  0  0  0
    2.4836   -3.5814   30.5353 S   0  0  0  0  0  0  0  0  0  0  0  0
    2.0632   -2.2897   31.0370 O   0  0  0  0  0  0  0  0  0  0  0  0
    1.8712   -4.1769   29.3659 O   0  0  0  0  0  0  0  0  0  0  0  0
   -1.6621   -2.7059   29.0656 H   0  0  0  0  0  0  0  0  0  0  0  0
   -0.1982   -3.0671   29.8094 H   0  0  0  0  0  0  0  0  0  0  0  0
   -0.1256   -1.7413   28.6920 H   0  0  0  0  0  0  0  0  0  0  0  0
   -2.4405   -1.0008   28.9926 H   0  0  0  0  0  0  0  0  0  0  0  0
   -2.4669    0.0074   30.3648 H   0  0  0  0  0  0  0  0  0  0  0  0
    0.5494    0.7183   30.6323 H   0  0  0  0  0  0  0  0  0  0  0  0
    1.7221    2.6496   29.6446 H   0  0  0  0  0  0  0  0  0  0  0  0
    0.8817    3.6881   27.5556 H   0  0  0  0  0  0  0  0  0  0  0  0
   -1.1313    2.7700   26.4373 H   0  0  0  0  0  0  0  0  0  0  0  0
   -2.2931    0.8180   27.3803 H   0  0  0  0  0  0  0  0  0  0  0  0
    0.5488   -2.1563   31.8243 H   0  0  0  0  0  0  0  0  0  0  0  0
    1.0203   -2.9154   34.0250 H   0  0  0  0  0  0  0  0  0  0  0  0
   -0.7139   -3.1639   34.2868 H   0  0  0  0  0  0  0  0  0  0  0  0
   -1.1524   -5.3889   34.6989 H   0  0  0  0  0  0  0  0  0  0  0  0
   -1.7763   -7.5143   33.6286 H   0  0  0  0  0  0  0  0  0  0  0  0
    1.4670   -6.4670   29.5083 H   0  0  0  0  0  0  0  0  0  0  0  0
    3.6503   -5.4895   33.1997 H   0  0  0  0  0  0  0  0  0  0  0  0
    2.6550   -4.2517   33.9227 H   0  0  0  0  0  0  0  0  0  0  0  0
    4.9995   -3.5604   33.6755 H   0  0  0  0  0  0  0  0  0  0  0  0
    3.9147   -2.4691   32.8410 H   0  0  0  0  0  0  0  0  0  0  0  0
    5.9996   -3.1079   31.5282 H   0  0  0  0  0  0  0  0  0  0  0  0
    5.4808   -4.7626   31.5709 H   0  0  0  0  0  0  0  0  0  0  0  0
    4.4878   -4.4289   29.6194 H   0  0  0  0  0  0  0  0  0  0  0  0
    4.3060   -3.2663   27.5299 H   0  0  0  0  0  0  0  0  0  0  0  0
    4.6602   -1.2159   26.2116 H   0  0  0  0  0  0  0  0  0  0  0  0
    5.1081    0.9372   27.3499 H   0  0  0  0  0  0  0  0  0  0  0  0
    5.2175    1.0405   29.8171 H   0  0  0  0  0  0  0  0  0  0  0  0
    4.8529   -0.9707   31.1626 H   0  0  0  0  0  0  0  0  0  0  0  0
  1  2  1  0
  2  3  1  0
  3  4  1  0
  4  5  2  0
  5  6  1  0
  6  7  2  0
  7  8  1  0
  8  9  2  0
  2 10  1  0
 10 11  2  0
 10 12  1  0
 12 13  1  0
 13 14  1  0
 14 15  1  0
 15 16  2  0
 16 17  1  0
 17 18  2  0
 18 19  1  0
 19 20  2  0
 20 21  1  0
 21 22  1  0
 22 23  1  0
 23 24  1  0
 24 25  1  0
 25 26  1  0
 26 27  1  0
 27 28  1  0
 28 29  2  0
 29 30  1  0
 30 31  2  0
 31 32  1  0
 32 33  2  0
 27 34  1  0
 34 35  2  0
 34 36  2  0
  9  4  1  0
 22 14  2  0
 34 23  1  0
 21 17  1  0
 33 28  1  0
  1 37  1  0
  1 38  1  0
  1 39  1  0
  3 40  1  0
  3 41  1  0
  5 42  1  0
  6 43  1  0
  7 44  1  0
  8 45  1  0
  9 46  1  0
 12 47  1  0
 13 48  1  0
 13 49  1  0
 15 50  1  0
 16 51  1  0
 20 52  1  0
 24 53  1  0
 24 54  1  0
 25 55  1  0
 25 56  1  0
 26 57  1  0
 26 58  1  0
 27 59  1  0
 29 60  1  0
 30 61  1  0
 31 62  1  0
 32 63  1  0
 33 64  1  0
M  END
>  <Energy>  (893) 
94.625160808329468

>  <compound_id>  (893) 
3761

>  <target_id>  (893) 
1

>  <reference_id>  (893) 
130

>  <inspiration_ids>  (893) 
[130, 197]

>  <energy_score>  (893) 
27.819166812831497

>  <distance_score>  (893) 
1.394492354501363

>  <path>  (893) 
/opt/xchem-fragalysis-2/maxwin/BulkDock/SCRATCH/505734/C3761-P130/C3761-P130.minimised.mol

>  <scratch_subdir>  (893) 
/opt/xchem-fragalysis-2/maxwin/BulkDock/SCRATCH/505734/C3761-P130

>  <fragmenstein_runtime>  (893) 
12.352539300918579

>  <fragmenstein_outcome>  (893) 
too moved

>  <fragmenstein_mode>  (893) 
expansion

>  <fragmenstein_error>  (893) 


$$$$
C3761-P197
     RDKit          3D

 64 68  0  0  0  0  0  0  0  0999 V2000
   -1.9250   -2.2774   32.4029 C   0  0  0  0  0  0  0  0  0  0  0  0
   -0.8994   -1.5499   33.2418 N   0  0  0  0  0  0  0  0  0  0  0  0
   -1.7348   -0.3706   32.8612 C   0  0  0  0  0  0  0  0  0  0  0  0
   -1.0777    0.3704   31.6956 C   0  0  0  0  0  0  0  0  0  0  0  0
    0.1138    1.0804   31.9104 C   0  0  0  0  0  0  0  0  0  0  0  0
    0.7501    1.7398   30.8592 C   0  0  0  0  0  0  0  0  0  0  0  0
    0.2113    1.6870   29.5770 C   0  0  0  0  0  0  0  0  0  0  0  0
   -0.9517    0.9579   29.3375 C   0  0  0  0  0  0  0  0  0  0  0  0
   -1.5898    0.3032   30.3915 C   0  0  0  0  0  0  0  0  0  0  0  0
   -0.7375   -2.2188   34.5148 C   0  0  0  0  0  0  0  0  0  0  0  0
   -1.2904   -2.0529   35.5392 O   0  0  0  0  0  0  0  0  0  0  0  0
    0.2345   -3.2076   34.1218 N   0  0  0  0  0  0  0  0  0  0  0  0
    0.7509   -4.3405   34.8197 C   0  0  0  0  0  0  0  0  0  0  0  0
    0.3969   -5.5340   33.9441 C   0  0  0  0  0  0  0  0  0  0  0  0
   -0.5446   -6.4658   34.5969 C   0  0  0  0  0  0  0  0  0  0  0  0
   -1.1775   -7.4465   33.9315 C   0  0  0  0  0  0  0  0  0  0  0  0
   -0.9528   -7.6072   32.5463 C   0  0  0  0  0  0  0  0  0  0  0  0
   -1.4564   -8.4284   31.6502 N   0  0  0  0  0  0  0  0  0  0  0  0
   -0.8407   -8.1708   30.4519 N   0  0  0  0  0  0  0  0  0  0  0  0
    0.0181   -7.1991   30.6521 C   0  0  0  0  0  0  0  0  0  0  0  0
   -0.0181   -6.7779   31.9540 N   0  0  0  0  0  0  0  0  0  0  0  0
    0.6827   -5.7571   32.6285 C   0  0  0  0  0  0  0  0  0  0  0  0
    1.6804   -4.9797   31.9213 N   0  0  0  0  0  0  0  0  0  0  0  0
    3.0019   -4.6452   32.5028 C   0  0  0  0  0  0  0  0  0  0  0  0
    3.9913   -4.2038   31.4123 C   0  0  0  0  0  0  0  0  0  0  0  0
    3.5929   -4.6514   29.9997 C   0  0  0  0  0  0  0  0  0  0  0  0
    2.3308   -3.9535   29.4803 C   0  0  0  0  0  0  0  0  0  0  0  0
    2.5299   -2.5981   28.8361 C   0  0  0  0  0  0  0  0  0  0  0  0
    1.4362   -1.9969   28.2020 C   0  0  0  0  0  0  0  0  0  0  0  0
    1.5667   -0.7467   27.6124 C   0  0  0  0  0  0  0  0  0  0  0  0
    2.7913   -0.0871   27.5965 C   0  0  0  0  0  0  0  0  0  0  0  0
    3.8929   -0.6759   28.1981 C   0  0  0  0  0  0  0  0  0  0  0  0
    3.7622   -1.9191   28.8177 C   0  0  0  0  0  0  0  0  0  0  0  0
    1.0950   -3.8017   30.8151 S   0  0  0  0  0  0  0  0  0  0  0  0
    1.2577   -2.5461   31.5130 O   0  0  0  0  0  0  0  0  0  0  0  0
   -0.1996   -4.2363   30.3378 O   0  0  0  0  0  0  0  0  0  0  0  0
   -1.9194   -2.0514   31.3331 H   0  0  0  0  0  0  0  0  0  0  0  0
   -1.6302   -3.3363   32.4213 H   0  0  0  0  0  0  0  0  0  0  0  0
   -2.9273   -2.3260   32.8594 H   0  0  0  0  0  0  0  0  0  0  0  0
   -2.8374   -0.4097   32.8025 H   0  0  0  0  0  0  0  0  0  0  0  0
   -1.6180    0.2998   33.7287 H   0  0  0  0  0  0  0  0  0  0  0  0
    0.5620    1.1049   32.9017 H   0  0  0  0  0  0  0  0  0  0  0  0
    1.6735    2.2835   31.0387 H   0  0  0  0  0  0  0  0  0  0  0  0
    0.7128    2.1993   28.7632 H   0  0  0  0  0  0  0  0  0  0  0  0
   -1.3677    0.8993   28.3346 H   0  0  0  0  0  0  0  0  0  0  0  0
   -2.4922   -0.2585   30.1801 H   0  0  0  0  0  0  0  0  0  0  0  0
    0.5596   -2.9979   33.1833 H   0  0  0  0  0  0  0  0  0  0  0  0
    0.2805   -4.3777   35.8075 H   0  0  0  0  0  0  0  0  0  0  0  0
    1.8263   -4.2390   34.9699 H   0  0  0  0  0  0  0  0  0  0  0  0
   -0.7408   -6.3410   35.6601 H   0  0  0  0  0  0  0  0  0  0  0  0
   -1.8621   -8.1226   34.4307 H   0  0  0  0  0  0  0  0  0  0  0  0
    0.6603   -6.7600   29.9083 H   0  0  0  0  0  0  0  0  0  0  0  0
    3.3948   -5.5288   33.0163 H   0  0  0  0  0  0  0  0  0  0  0  0
    2.9293   -3.8453   33.2425 H   0  0  0  0  0  0  0  0  0  0  0  0
    4.9892   -4.5843   31.6599 H   0  0  0  0  0  0  0  0  0  0  0  0
    4.0845   -3.1118   31.4441 H   0  0  0  0  0  0  0  0  0  0  0  0
    4.4340   -4.5271   29.3086 H   0  0  0  0  0  0  0  0  0  0  0  0
    3.3844   -5.7244   29.9985 H   0  0  0  0  0  0  0  0  0  0  0  0
    1.8830   -4.6159   28.7280 H   0  0  0  0  0  0  0  0  0  0  0  0
    0.4583   -2.4782   28.1740 H   0  0  0  0  0  0  0  0  0  0  0  0
    0.6874   -0.2871   27.1778 H   0  0  0  0  0  0  0  0  0  0  0  0
    2.8844    0.8821   27.1163 H   0  0  0  0  0  0  0  0  0  0  0  0
    4.8526   -0.1667   28.1897 H   0  0  0  0  0  0  0  0  0  0  0  0
    4.6536   -2.3305   29.2808 H   0  0  0  0  0  0  0  0  0  0  0  0
  1  2  1  0
  2  3  1  0
  3  4  1  0
  4  5  2  0
  5  6  1  0
  6  7  2  0
  7  8  1  0
  8  9  2  0
  2 10  1  0
 10 11  2  0
 10 12  1  0
 12 13  1  0
 13 14  1  0
 14 15  1  0
 15 16  2  0
 16 17  1  0
 17 18  2  0
 18 19  1  0
 19 20  2  0
 20 21  1  0
 21 22  1  0
 22 23  1  0
 23 24  1  0
 24 25  1  0
 25 26  1  0
 26 27  1  0
 27 28  1  0
 28 29  2  0
 29 30  1  0
 30 31  2  0
 31 32  1  0
 32 33  2  0
 27 34  1  0
 34 35  2  0
 34 36  2  0
  9  4  1  0
 22 14  2  0
 34 23  1  0
 21 17  1  0
 33 28  1  0
  1 37  1  0
  1 38  1  0
  1 39  1  0
  3 40  1  0
  3 41  1  0
  5 42  1  0
  6 43  1  0
  7 44  1  0
  8 45  1  0
  9 46  1  0
 12 47  1  0
 13 48  1  0
 13 49  1  0
 15 50  1  0
 16 51  1  0
 20 52  1  0
 24 53  1  0
 24 54  1  0
 25 55  1  0
 25 56  1  0
 26 57  1  0
 26 58  1  0
 27 59  1  0
 29 60  1  0
 30 61  1  0
 31 62  1  0
 32 63  1  0
 33 64  1  0
M  END
>  <Energy>  (894) 
88.520827752504346

>  <compound_id>  (894) 
3761

>  <target_id>  (894) 
1

>  <reference_id>  (894) 
197

>  <inspiration_ids>  (894) 
[130, 197]

>  <energy_score>  (894) 
21.714833757005408

>  <distance_score>  (894) 
2.317693680918732

>  <path>  (894) 
/opt/xchem-fragalysis-2/maxwin/BulkDock/SCRATCH/505734/C3761-P197/C3761-P197.minimised.mol

>  <scratch_subdir>  (894) 
/opt/xchem-fragalysis-2/maxwin/BulkDock/SCRATCH/505734/C3761-P197

>  <fragmenstein_runtime>  (894) 
9.414639234542847

>  <fragmenstein_outcome>  (894) 
too moved

>  <fragmenstein_mode>  (894) 
expansion

>  <fragmenstein_error>  (894) 


$$$$
C3761-P130
     RDKit          3D

 64 68  0  0  0  0  0  0  0  0999 V2000
   -1.7041   -2.1075   31.0936 C   0  0  0  0  0  0  0  0  0  0  0  0
   -0.9414   -1.2787   32.0993 N   0  0  0  0  0  0  0  0  0  0  0  0
   -1.5979   -0.1559   31.3538 C   0  0  0  0  0  0  0  0  0  0  0  0
   -0.7317    0.5075   30.3005 C   0  0  0  0  0  0  0  0  0  0  0  0
    0.4247    1.2053   30.6774 C   0  0  0  0  0  0  0  0  0  0  0  0
    1.1507    1.9316   29.7331 C   0  0  0  0  0  0  0  0  0  0  0  0
    0.7374    1.9575   28.4024 C   0  0  0  0  0  0  0  0  0  0  0  0
   -0.3900    1.2407   28.0117 C   0  0  0  0  0  0  0  0  0  0  0  0
   -1.1160    0.5123   28.9525 C   0  0  0  0  0  0  0  0  0  0  0  0
   -1.1765   -1.7864   33.4462 C   0  0  0  0  0  0  0  0  0  0  0  0
   -1.9949   -1.4941   34.2353 O   0  0  0  0  0  0  0  0  0  0  0  0
   -0.1562   -2.8066   33.4869 N   0  0  0  0  0  0  0  0  0  0  0  0
    0.1091   -3.8324   34.4550 C   0  0  0  0  0  0  0  0  0  0  0  0
    0.0733   -5.1560   33.7062 C   0  0  0  0  0  0  0  0  0  0  0  0
   -0.7925   -6.1698   34.3155 C   0  0  0  0  0  0  0  0  0  0  0  0
   -1.2058   -7.2543   33.6434 C   0  0  0  0  0  0  0  0  0  0  0  0
   -0.8327   -7.4175   32.2914 C   0  0  0  0  0  0  0  0  0  0  0  0
   -1.2072   -8.2928   31.3843 N   0  0  0  0  0  0  0  0  0  0  0  0
   -0.5101   -8.0272   30.2412 N   0  0  0  0  0  0  0  0  0  0  0  0
    0.2672   -6.9958   30.4842 C   0  0  0  0  0  0  0  0  0  0  0  0
    0.0988   -6.5271   31.7583 N   0  0  0  0  0  0  0  0  0  0  0  0
    0.6145   -5.4231   32.4814 C   0  0  0  0  0  0  0  0  0  0  0  0
    1.6809   -4.5024   32.0854 N   0  0  0  0  0  0  0  0  0  0  0  0
    2.9524   -4.6123   32.8801 C   0  0  0  0  0  0  0  0  0  0  0  0
    4.0863   -3.7349   32.3544 C   0  0  0  0  0  0  0  0  0  0  0  0
    3.5855   -2.3999   31.8154 C   0  0  0  0  0  0  0  0  0  0  0  0
    2.7208   -2.5264   30.5509 C   0  0  0  0  0  0  0  0  0  0  0  0
    3.4647   -2.2321   29.2601 C   0  0  0  0  0  0  0  0  0  0  0  0
    4.6536   -2.8834   28.8945 C   0  0  0  0  0  0  0  0  0  0  0  0
    5.3304   -2.5397   27.7206 C   0  0  0  0  0  0  0  0  0  0  0  0
    4.8396   -1.5288   26.9010 C   0  0  0  0  0  0  0  0  0  0  0  0
    3.6685   -0.8660   27.2517 C   0  0  0  0  0  0  0  0  0  0  0  0
    2.9782   -1.2260   28.4105 C   0  0  0  0  0  0  0  0  0  0  0  0
    1.8907   -4.1347   30.4320 S   0  0  0  0  0  0  0  0  0  0  0  0
    0.5703   -3.9540   29.8708 O   0  0  0  0  0  0  0  0  0  0  0  0
    2.7861   -5.1542   29.9167 O   0  0  0  0  0  0  0  0  0  0  0  0
   -1.4366   -1.9588   30.0404 H   0  0  0  0  0  0  0  0  0  0  0  0
   -1.4127   -3.1500   31.2824 H   0  0  0  0  0  0  0  0  0  0  0  0
   -2.7853   -2.1436   31.2972 H   0  0  0  0  0  0  0  0  0  0  0  0
   -1.6726    0.6069   32.1474 H   0  0  0  0  0  0  0  0  0  0  0  0
   -2.6681   -0.2121   31.0852 H   0  0  0  0  0  0  0  0  0  0  0  0
    0.7436    1.2168   31.7175 H   0  0  0  0  0  0  0  0  0  0  0  0
    2.0316    2.4923   30.0358 H   0  0  0  0  0  0  0  0  0  0  0  0
    1.2951    2.5358   27.6701 H   0  0  0  0  0  0  0  0  0  0  0  0
   -0.7177    1.2581   26.9767 H   0  0  0  0  0  0  0  0  0  0  0  0
   -1.9940   -0.0328   28.6181 H   0  0  0  0  0  0  0  0  0  0  0  0
    0.4274   -2.7223   32.6682 H   0  0  0  0  0  0  0  0  0  0  0  0
   -0.6702   -3.7692   35.2220 H   0  0  0  0  0  0  0  0  0  0  0  0
    1.0698   -3.6438   34.9362 H   0  0  0  0  0  0  0  0  0  0  0  0
   -1.1107   -6.0325   35.3476 H   0  0  0  0  0  0  0  0  0  0  0  0
   -1.8400   -8.0009   34.1089 H   0  0  0  0  0  0  0  0  0  0  0  0
    0.9291   -6.5645   29.7579 H   0  0  0  0  0  0  0  0  0  0  0  0
    3.2735   -5.6568   32.9263 H   0  0  0  0  0  0  0  0  0  0  0  0
    2.7612   -4.3011   33.9096 H   0  0  0  0  0  0  0  0  0  0  0  0
    4.6512   -4.2734   31.5883 H   0  0  0  0  0  0  0  0  0  0  0  0
    4.7967   -3.5554   33.1706 H   0  0  0  0  0  0  0  0  0  0  0  0
    4.4326   -1.7251   31.6421 H   0  0  0  0  0  0  0  0  0  0  0  0
    2.9844   -1.9234   32.6021 H   0  0  0  0  0  0  0  0  0  0  0  0
    1.9019   -1.8018   30.6543 H   0  0  0  0  0  0  0  0  0  0  0  0
    5.0762   -3.6746   29.5066 H   0  0  0  0  0  0  0  0  0  0  0  0
    6.2445   -3.0604   27.4461 H   0  0  0  0  0  0  0  0  0  0  0  0
    5.3575   -1.2610   25.9826 H   0  0  0  0  0  0  0  0  0  0  0  0
    3.2791   -0.0817   26.6054 H   0  0  0  0  0  0  0  0  0  0  0  0
    2.0519   -0.7042   28.6414 H   0  0  0  0  0  0  0  0  0  0  0  0
  1  2  1  0
  2  3  1  0
  3  4  1  0
  4  5  2  0
  5  6  1  0
  6  7  2  0
  7  8  1  0
  8  9  2  0
  2 10  1  0
 10 11  2  0
 10 12  1  0
 12 13  1  0
 13 14  1  0
 14 15  1  0
 15 16  2  0
 16 17  1  0
 17 18  2  0
 18 19  1  0
 19 20  2  0
 20 21  1  0
 21 22  1  0
 22 23  1  0
 23 24  1  0
 24 25  1  0
 25 26  1  0
 26 27  1  0
 27 28  1  0
 28 29  2  0
 29 30  1  0
 30 31  2  0
 31 32  1  0
 32 33  2  0
 27 34  1  0
 34 35  2  0
 34 36  2  0
  9  4  1  0
 22 14  2  0
 34 23  1  0
 21 17  1  0
 33 28  1  0
  1 37  1  0
  1 38  1  0
  1 39  1  0
  3 40  1  0
  3 41  1  0
  5 42  1  0
  6 43  1  0
  7 44  1  0
  8 45  1  0
  9 46  1  0
 12 47  1  0
 13 48  1  0
 13 49  1  0
 15 50  1  0
 16 51  1  0
 20 52  1  0
 24 53  1  0
 24 54  1  0
 25 55  1  0
 25 56  1  0
 26 57  1  0
 26 58  1  0
 27 59  1  0
 29 60  1  0
 30 61  1  0
 31 62  1  0
 32 63  1  0
 33 64  1  0
M  END
>  <Energy>  (895) 
81.869288595778514

>  <compound_id>  (895) 
3761

>  <target_id>  (895) 
1

>  <reference_id>  (895) 
130

>  <inspiration_ids>  (895) 
[130, 198]

>  <energy_score>  (895) 
15.063294600278198

>  <distance_score>  (895) 
1.9179985139756095

>  <path>  (895) 
/opt/xchem-fragalysis-2/maxwin/BulkDock/SCRATCH/505734/C3761-P130/C3761-P130.minimised.mol

>  <scratch_subdir>  (895) 
/opt/xchem-fragalysis-2/maxwin/BulkDock/SCRATCH/505734/C3761-P130

>  <fragmenstein_runtime>  (895) 
18.534713745117188

>  <fragmenstein_outcome>  (895) 
too moved

>  <fragmenstein_mode>  (895) 
expansion

>  <fragmenstein_error>  (895) 


$$$$
C3761-P198
     RDKit          3D

 64 68  0  0  0  0  0  0  0  0999 V2000
   -0.8984   -1.9429   29.2230 C   0  0  0  0  0  0  0  0  0  0  0  0
   -0.9316   -0.9286   30.3521 N   0  0  0  0  0  0  0  0  0  0  0  0
   -1.7650   -0.1746   29.3640 C   0  0  0  0  0  0  0  0  0  0  0  0
   -1.0258    0.9131   28.5995 C   0  0  0  0  0  0  0  0  0  0  0  0
    0.3166    1.2307   28.8487 C   0  0  0  0  0  0  0  0  0  0  0  0
    0.9362    2.2779   28.1662 C   0  0  0  0  0  0  0  0  0  0  0  0
    0.2193    3.0280   27.2368 C   0  0  0  0  0  0  0  0  0  0  0  0
   -1.1165    2.7301   26.9840 C   0  0  0  0  0  0  0  0  0  0  0  0
   -1.7337    1.6768   27.6575 C   0  0  0  0  0  0  0  0  0  0  0  0
   -1.3004   -1.5802   31.5970 C   0  0  0  0  0  0  0  0  0  0  0  0
   -2.3573   -1.7478   32.0841 O   0  0  0  0  0  0  0  0  0  0  0  0
    0.0213   -1.9364   32.0703 N   0  0  0  0  0  0  0  0  0  0  0  0
    0.4369   -2.6822   33.2235 C   0  0  0  0  0  0  0  0  0  0  0  0
    0.5040   -4.1188   32.7608 C   0  0  0  0  0  0  0  0  0  0  0  0
   -0.5251   -4.9842   33.3601 C   0  0  0  0  0  0  0  0  0  0  0  0
   -0.8737   -6.1680   32.8315 C   0  0  0  0  0  0  0  0  0  0  0  0
   -0.2818   -6.5744   31.6187 C   0  0  0  0  0  0  0  0  0  0  0  0
   -0.5009   -7.6054   30.8331 N   0  0  0  0  0  0  0  0  0  0  0  0
    0.3758   -7.5130   29.7846 N   0  0  0  0  0  0  0  0  0  0  0  0
    1.0847   -6.4164   29.9515 C   0  0  0  0  0  0  0  0  0  0  0  0
    0.7478   -5.7908   31.1123 N   0  0  0  0  0  0  0  0  0  0  0  0
    1.2251   -4.6135   31.7175 C   0  0  0  0  0  0  0  0  0  0  0  0
    2.5158   -4.0267   31.3626 N   0  0  0  0  0  0  0  0  0  0  0  0
    3.4542   -3.5914   32.4276 C   0  0  0  0  0  0  0  0  0  0  0  0
    4.8960   -3.8997   32.0105 C   0  0  0  0  0  0  0  0  0  0  0  0
    5.1550   -3.8702   30.4973 C   0  0  0  0  0  0  0  0  0  0  0  0
    4.3833   -2.7477   29.8056 C   0  0  0  0  0  0  0  0  0  0  0  0
    4.7063   -2.4815   28.3485 C   0  0  0  0  0  0  0  0  0  0  0  0
    5.3373   -3.4255   27.5236 C   0  0  0  0  0  0  0  0  0  0  0  0
    5.6306   -3.1257   26.1906 C   0  0  0  0  0  0  0  0  0  0  0  0
    5.2907   -1.8846   25.6593 C   0  0  0  0  0  0  0  0  0  0  0  0
    4.6597   -0.9383   26.4602 C   0  0  0  0  0  0  0  0  0  0  0  0
    4.3706   -1.2321   27.7933 C   0  0  0  0  0  0  0  0  0  0  0  0
    2.5889   -3.0314   29.9617 S   0  0  0  0  0  0  0  0  0  0  0  0
    2.0106   -1.7561   30.3288 O   0  0  0  0  0  0  0  0  0  0  0  0
    2.0845   -3.8068   28.8504 O   0  0  0  0  0  0  0  0  0  0  0  0
   -0.4133   -1.6035   28.2971 H   0  0  0  0  0  0  0  0  0  0  0  0
   -0.2652   -2.7648   29.5748 H   0  0  0  0  0  0  0  0  0  0  0  0
   -1.8571   -2.4668   29.0772 H   0  0  0  0  0  0  0  0  0  0  0  0
   -2.4338    0.3855   30.0352 H   0  0  0  0  0  0  0  0  0  0  0  0
   -2.4782   -0.7123   28.7216 H   0  0  0  0  0  0  0  0  0  0  0  0
    0.8902    0.6726   29.5842 H   0  0  0  0  0  0  0  0  0  0  0  0
    1.9752    2.5198   28.3714 H   0  0  0  0  0  0  0  0  0  0  0  0
    0.6962    3.8582   26.7224 H   0  0  0  0  0  0  0  0  0  0  0  0
   -1.6881    3.3343   26.2833 H   0  0  0  0  0  0  0  0  0  0  0  0
   -2.7855    1.4817   27.4615 H   0  0  0  0  0  0  0  0  0  0  0  0
    0.7186   -1.5614   31.4264 H   0  0  0  0  0  0  0  0  0  0  0  0
   -0.3099   -2.5274   34.0089 H   0  0  0  0  0  0  0  0  0  0  0  0
    1.3925   -2.2997   33.5824 H   0  0  0  0  0  0  0  0  0  0  0  0
   -1.0003   -4.6561   34.2831 H   0  0  0  0  0  0  0  0  0  0  0  0
   -1.6107   -6.8087   33.3013 H   0  0  0  0  0  0  0  0  0  0  0  0
    1.8437   -6.0598   29.2748 H   0  0  0  0  0  0  0  0  0  0  0  0
    3.2450   -4.1006   33.3750 H   0  0  0  0  0  0  0  0  0  0  0  0
    3.3477   -2.5160   32.6079 H   0  0  0  0  0  0  0  0  0  0  0  0
    5.1882   -4.8832   32.3957 H   0  0  0  0  0  0  0  0  0  0  0  0
    5.5587   -3.1808   32.5086 H   0  0  0  0  0  0  0  0  0  0  0  0
    4.8699   -4.8357   30.0642 H   0  0  0  0  0  0  0  0  0  0  0  0
    6.2336   -3.7602   30.3307 H   0  0  0  0  0  0  0  0  0  0  0  0
    4.5883   -1.8232   30.3637 H   0  0  0  0  0  0  0  0  0  0  0  0
    5.6172   -4.4076   27.8940 H   0  0  0  0  0  0  0  0  0  0  0  0
    6.1247   -3.8634   25.5628 H   0  0  0  0  0  0  0  0  0  0  0  0
    5.5032   -1.6508   24.6179 H   0  0  0  0  0  0  0  0  0  0  0  0
    4.3807    0.0246   26.0360 H   0  0  0  0  0  0  0  0  0  0  0  0
    3.8699   -0.4708   28.3907 H   0  0  0  0  0  0  0  0  0  0  0  0
  1  2  1  0
  2  3  1  0
  3  4  1  0
  4  5  2  0
  5  6  1  0
  6  7  2  0
  7  8  1  0
  8  9  2  0
  2 10  1  0
 10 11  2  0
 10 12  1  0
 12 13  1  0
 13 14  1  0
 14 15  1  0
 15 16  2  0
 16 17  1  0
 17 18  2  0
 18 19  1  0
 19 20  2  0
 20 21  1  0
 21 22  1  0
 22 23  1  0
 23 24  1  0
 24 25  1  0
 25 26  1  0
 26 27  1  0
 27 28  1  0
 28 29  2  0
 29 30  1  0
 30 31  2  0
 31 32  1  0
 32 33  2  0
 27 34  1  0
 34 35  2  0
 34 36  2  0
  9  4  1  0
 22 14  2  0
 34 23  1  0
 21 17  1  0
 33 28  1  0
  1 37  1  0
  1 38  1  0
  1 39  1  0
  3 40  1  0
  3 41  1  0
  5 42  1  0
  6 43  1  0
  7 44  1  0
  8 45  1  0
  9 46  1  0
 12 47  1  0
 13 48  1  0
 13 49  1  0
 15 50  1  0
 16 51  1  0
 20 52  1  0
 24 53  1  0
 24 54  1  0
 25 55  1  0
 25 56  1  0
 26 57  1  0
 26 58  1  0
 27 59  1  0
 29 60  1  0
 30 61  1  0
 31 62  1  0
 32 63  1  0
 33 64  1  0
M  END
>  <Energy>  (896) 
87.778367533656819

>  <compound_id>  (896) 
3761

>  <target_id>  (896) 
1

>  <reference_id>  (896) 
198

>  <inspiration_ids>  (896) 
[130, 198]

>  <energy_score>  (896) 
20.972373538153704

>  <distance_score>  (896) 
1.9347165994332247

>  <path>  (896) 
/opt/xchem-fragalysis-2/maxwin/BulkDock/SCRATCH/505734/C3761-P198/C3761-P198.minimised.mol

>  <scratch_subdir>  (896) 
/opt/xchem-fragalysis-2/maxwin/BulkDock/SCRATCH/505734/C3761-P198

>  <fragmenstein_runtime>  (896) 
13.132878065109253

>  <fragmenstein_outcome>  (896) 
too moved

>  <fragmenstein_mode>  (896) 
expansion

>  <fragmenstein_error>  (896) 


$$$$
C3762-P199
     RDKit          2D

  0  0  0  0  0  0  0  0  0  0999 V2000
M  END
>  <compound_id>  (897) 
3762

>  <target_id>  (897) 
1

>  <reference_id>  (897) 
199

>  <inspiration_ids>  (897) 
[130, 199]

>  <energy_score>  (897) 
nan

>  <distance_score>  (897) 
nan

>  <path>  (897) 
/opt/xchem-fragalysis-2/maxwin/BulkDock/SCRATCH/505734/C3762-P199/C3762-P199.minimised.mol

>  <scratch_subdir>  (897) 
/opt/xchem-fragalysis-2/maxwin/BulkDock/SCRATCH/505734/C3762-P199

>  <fragmenstein_runtime>  (897) 
0.4481239318847656

>  <fragmenstein_outcome>  (897) 
too distant

>  <fragmenstein_mode>  (897) 
expansion

>  <fragmenstein_error>  (897) 
DistanceError: hit0+hit1

$$$$
C3764-P130
     RDKit          3D

 49 52  0  0  0  0  0  0  0  0999 V2000
   -0.3987   -2.0049   28.8128 C   0  0  0  0  0  0  0  0  0  0  0  0
   -0.7080   -1.4439   30.1798 N   0  0  0  0  0  0  0  0  0  0  0  0
   -1.6210   -0.5654   29.3762 C   0  0  0  0  0  0  0  0  0  0  0  0
   -1.0150    0.7321   28.8712 C   0  0  0  0  0  0  0  0  0  0  0  0
    0.0020    1.3876   29.5803 C   0  0  0  0  0  0  0  0  0  0  0  0
    0.4922    2.6149   29.1354 C   0  0  0  0  0  0  0  0  0  0  0  0
   -0.0355    3.2019   27.9867 C   0  0  0  0  0  0  0  0  0  0  0  0
   -1.0449    2.5590   27.2738 C   0  0  0  0  0  0  0  0  0  0  0  0
   -1.5292    1.3270   27.7097 C   0  0  0  0  0  0  0  0  0  0  0  0
   -1.0102   -2.5262   31.1090 C   0  0  0  0  0  0  0  0  0  0  0  0
   -2.0379   -3.0271   31.3839 O   0  0  0  0  0  0  0  0  0  0  0  0
    0.3217   -2.7473   31.6496 N   0  0  0  0  0  0  0  0  0  0  0  0
    0.8017   -3.7087   32.6139 C   0  0  0  0  0  0  0  0  0  0  0  0
    0.6048   -5.0818   32.0234 C   0  0  0  0  0  0  0  0  0  0  0  0
    1.1794   -5.4658   30.8443 C   0  0  0  0  0  0  0  0  0  0  0  0
    2.2645   -4.6977   30.1744 C   0  0  0  0  0  0  0  0  0  0  0  0
    2.3001   -4.4980   28.7971 C   0  0  0  0  0  0  0  0  0  0  0  0
    3.3291   -3.9031   28.1451 N   0  0  0  0  0  0  0  0  0  0  0  0
    4.3405   -3.4876   28.9365 C   0  0  0  0  0  0  0  0  0  0  0  0
    4.3242   -3.6757   30.3068 C   0  0  0  0  0  0  0  0  0  0  0  0
    3.2993   -4.2926   30.9464 N   0  0  0  0  0  0  0  0  0  0  0  0
    0.7386   -6.7321   30.2612 C   0  0  0  0  0  0  0  0  0  0  0  0
   -0.1518   -7.5488   30.8343 C   0  0  0  0  0  0  0  0  0  0  0  0
   -0.6439   -7.2178   32.1083 C   0  0  0  0  0  0  0  0  0  0  0  0
   -1.3947   -7.9036   32.9310 N   0  0  0  0  0  0  0  0  0  0  0  0
   -1.4962   -7.1867   34.0879 N   0  0  0  0  0  0  0  0  0  0  0  0
   -0.8615   -6.0489   33.9270 C   0  0  0  0  0  0  0  0  0  0  0  0
   -0.8084   -5.0541   34.8465 N   0  0  0  0  0  0  0  0  0  0  0  0
   -0.2632   -6.0024   32.6721 N   0  0  0  0  0  0  0  0  0  0  0  0
    0.4171   -2.7116   28.9804 H   0  0  0  0  0  0  0  0  0  0  0  0
   -1.1976   -2.6490   28.4162 H   0  0  0  0  0  0  0  0  0  0  0  0
    0.0329   -1.3114   28.0794 H   0  0  0  0  0  0  0  0  0  0  0  0
   -2.3288   -0.2265   30.1503 H   0  0  0  0  0  0  0  0  0  0  0  0
   -2.3095   -1.0563   28.6673 H   0  0  0  0  0  0  0  0  0  0  0  0
    0.4010    0.9560   30.4951 H   0  0  0  0  0  0  0  0  0  0  0  0
    1.2664    3.1296   29.6980 H   0  0  0  0  0  0  0  0  0  0  0  0
    0.3230    4.1744   27.6590 H   0  0  0  0  0  0  0  0  0  0  0  0
   -1.4750    3.0312   26.3938 H   0  0  0  0  0  0  0  0  0  0  0  0
   -2.3273    0.8467   27.1469 H   0  0  0  0  0  0  0  0  0  0  0  0
    0.9883   -2.2005   31.1213 H   0  0  0  0  0  0  0  0  0  0  0  0
    1.8472   -3.4952   32.8497 H   0  0  0  0  0  0  0  0  0  0  0  0
    0.2252   -3.5119   33.5118 H   0  0  0  0  0  0  0  0  0  0  0  0
    1.4776   -4.7984   28.1643 H   0  0  0  0  0  0  0  0  0  0  0  0
    5.1691   -2.9961   28.4391 H   0  0  0  0  0  0  0  0  0  0  0  0
    5.1423   -3.3395   30.9350 H   0  0  0  0  0  0  0  0  0  0  0  0
    1.2164   -7.0334   29.3419 H   0  0  0  0  0  0  0  0  0  0  0  0
   -0.4301   -8.4997   30.3955 H   0  0  0  0  0  0  0  0  0  0  0  0
   -1.5624   -4.3792   34.6488 H   0  0  0  0  0  0  0  0  0  0  0  0
   -1.0918   -5.4119   35.7589 H   0  0  0  0  0  0  0  0  0  0  0  0
  1  2  1  0
  2  3  1  0
  3  4  1  0
  4  5  2  0
  5  6  1  0
  6  7  2  0
  7  8  1  0
  8  9  2  0
  2 10  1  0
 10 11  2  0
 10 12  1  0
 12 13  1  0
 13 14  1  0
 14 15  2  0
 15 16  1  0
 16 17  2  0
 17 18  1  0
 18 19  2  0
 19 20  1  0
 20 21  2  0
 15 22  1  0
 22 23  2  0
 23 24  1  0
 24 25  2  0
 25 26  1  0
 26 27  2  0
 27 28  1  0
 27 29  1  0
  9  4  1  0
 29 14  1  0
 21 16  1  0
 29 24  1  0
  1 30  1  0
  1 31  1  0
  1 32  1  0
  3 33  1  0
  3 34  1  0
  5 35  1  0
  6 36  1  0
  7 37  1  0
  8 38  1  0
  9 39  1  0
 12 40  1  0
 13 41  1  0
 13 42  1  0
 17 43  1  0
 19 44  1  0
 20 45  1  0
 22 46  1  0
 23 47  1  0
 28 48  1  0
 28 49  1  0
M  END
>  <Energy>  (898) 
100.98369400593614

>  <compound_id>  (898) 
3764

>  <target_id>  (898) 
1

>  <reference_id>  (898) 
130

>  <inspiration_ids>  (898) 
[130, 200]

>  <energy_score>  (898) 
29.32071843616049

>  <distance_score>  (898) 
1.8108872106138414

>  <path>  (898) 
/opt/xchem-fragalysis-2/maxwin/BulkDock/SCRATCH/505734/C3764-P130/C3764-P130.minimised.mol

>  <scratch_subdir>  (898) 
/opt/xchem-fragalysis-2/maxwin/BulkDock/SCRATCH/505734/C3764-P130

>  <fragmenstein_runtime>  (898) 
11.056639671325684

>  <fragmenstein_outcome>  (898) 
too moved

>  <fragmenstein_mode>  (898) 
expansion

>  <fragmenstein_error>  (898) 


$$$$
C3764-P200
     RDKit          3D

 49 52  0  0  0  0  0  0  0  0999 V2000
   -0.4941   -1.8911   28.6546 C   0  0  0  0  0  0  0  0  0  0  0  0
   -0.5463   -1.2467   30.0227 N   0  0  0  0  0  0  0  0  0  0  0  0
   -1.6020   -0.4114   29.3528 C   0  0  0  0  0  0  0  0  0  0  0  0
   -1.1031    0.8605   28.6890 C   0  0  0  0  0  0  0  0  0  0  0  0
    0.0398    1.5245   29.1593 C   0  0  0  0  0  0  0  0  0  0  0  0
    0.4370    2.7351   28.5934 C   0  0  0  0  0  0  0  0  0  0  0  0
   -0.3075    3.2997   27.5602 C   0  0  0  0  0  0  0  0  0  0  0  0
   -1.4453    2.6524   27.0861 C   0  0  0  0  0  0  0  0  0  0  0  0
   -1.8387    1.4366   27.6435 C   0  0  0  0  0  0  0  0  0  0  0  0
   -0.6606   -2.2662   31.0496 C   0  0  0  0  0  0  0  0  0  0  0  0
   -1.6141   -2.7459   31.5416 O   0  0  0  0  0  0  0  0  0  0  0  0
    0.7461   -2.5278   31.2748 N   0  0  0  0  0  0  0  0  0  0  0  0
    1.3988   -3.5102   32.0901 C   0  0  0  0  0  0  0  0  0  0  0  0
    1.0734   -4.8588   31.4998 C   0  0  0  0  0  0  0  0  0  0  0  0
    1.6131   -5.3068   30.3291 C   0  0  0  0  0  0  0  0  0  0  0  0
    2.5924   -4.5601   29.5015 C   0  0  0  0  0  0  0  0  0  0  0  0
    3.8620   -4.2032   29.9394 C   0  0  0  0  0  0  0  0  0  0  0  0
    4.7725   -3.5872   29.1454 N   0  0  0  0  0  0  0  0  0  0  0  0
    4.3671   -3.3388   27.8800 C   0  0  0  0  0  0  0  0  0  0  0  0
    3.1181   -3.7114   27.4236 C   0  0  0  0  0  0  0  0  0  0  0  0
    2.2214   -4.3485   28.2144 N   0  0  0  0  0  0  0  0  0  0  0  0
    1.1290   -6.5826   29.8056 C   0  0  0  0  0  0  0  0  0  0  0  0
    0.2324   -7.3583   30.4281 C   0  0  0  0  0  0  0  0  0  0  0  0
   -0.2674   -6.9408   31.6732 C   0  0  0  0  0  0  0  0  0  0  0  0
   -1.0447   -7.5505   32.5329 N   0  0  0  0  0  0  0  0  0  0  0  0
   -1.2653   -6.6824   33.5648 N   0  0  0  0  0  0  0  0  0  0  0  0
   -0.6679   -5.5449   33.2853 C   0  0  0  0  0  0  0  0  0  0  0  0
   -0.8539   -4.3708   33.9333 N   0  0  0  0  0  0  0  0  0  0  0  0
    0.1136   -5.6880   32.1469 N   0  0  0  0  0  0  0  0  0  0  0  0
    0.3221   -2.6205   28.7061 H   0  0  0  0  0  0  0  0  0  0  0  0
   -1.3630   -2.5281   28.4363 H   0  0  0  0  0  0  0  0  0  0  0  0
   -0.1790   -1.2359   27.8340 H   0  0  0  0  0  0  0  0  0  0  0  0
   -2.1705   -0.0384   30.2210 H   0  0  0  0  0  0  0  0  0  0  0  0
   -2.4041   -0.9347   28.8054 H   0  0  0  0  0  0  0  0  0  0  0  0
    0.6140    1.1156   29.9872 H   0  0  0  0  0  0  0  0  0  0  0  0
    1.3100    3.2558   28.9779 H   0  0  0  0  0  0  0  0  0  0  0  0
   -0.0189    4.2621   27.1456 H   0  0  0  0  0  0  0  0  0  0  0  0
   -2.0494    3.1141   26.3085 H   0  0  0  0  0  0  0  0  0  0  0  0
   -2.7465    0.9677   27.2742 H   0  0  0  0  0  0  0  0  0  0  0  0
    1.2929   -1.9878   30.6154 H   0  0  0  0  0  0  0  0  0  0  0  0
    2.4714   -3.3022   32.0720 H   0  0  0  0  0  0  0  0  0  0  0  0
    1.1000   -3.3753   33.1271 H   0  0  0  0  0  0  0  0  0  0  0  0
    4.2042   -4.4124   30.9467 H   0  0  0  0  0  0  0  0  0  0  0  0
    5.0781   -2.8321   27.2371 H   0  0  0  0  0  0  0  0  0  0  0  0
    2.7999   -3.5064   26.4058 H   0  0  0  0  0  0  0  0  0  0  0  0
    1.5885   -6.9070   28.8777 H   0  0  0  0  0  0  0  0  0  0  0  0
   -0.0812   -8.3169   30.0309 H   0  0  0  0  0  0  0  0  0  0  0  0
   -1.0725   -3.5900   33.3046 H   0  0  0  0  0  0  0  0  0  0  0  0
   -1.6855   -4.4330   34.5366 H   0  0  0  0  0  0  0  0  0  0  0  0
  1  2  1  0
  2  3  1  0
  3  4  1  0
  4  5  2  0
  5  6  1  0
  6  7  2  0
  7  8  1  0
  8  9  2  0
  2 10  1  0
 10 11  2  0
 10 12  1  0
 12 13  1  0
 13 14  1  0
 14 15  2  0
 15 16  1  0
 16 17  2  0
 17 18  1  0
 18 19  2  0
 19 20  1  0
 20 21  2  0
 15 22  1  0
 22 23  2  0
 23 24  1  0
 24 25  2  0
 25 26  1  0
 26 27  2  0
 27 28  1  0
 27 29  1  0
  9  4  1  0
 29 14  1  0
 21 16  1  0
 29 24  1  0
  1 30  1  0
  1 31  1  0
  1 32  1  0
  3 33  1  0
  3 34  1  0
  5 35  1  0
  6 36  1  0
  7 37  1  0
  8 38  1  0
  9 39  1  0
 12 40  1  0
 13 41  1  0
 13 42  1  0
 17 43  1  0
 19 44  1  0
 20 45  1  0
 22 46  1  0
 23 47  1  0
 28 48  1  0
 28 49  1  0
M  END
>  <Energy>  (899) 
94.142724957564113

>  <compound_id>  (899) 
3764

>  <target_id>  (899) 
1

>  <reference_id>  (899) 
200

>  <inspiration_ids>  (899) 
[130, 200]

>  <energy_score>  (899) 
22.47974938778634

>  <distance_score>  (899) 
1.895306164182497

>  <path>  (899) 
/opt/xchem-fragalysis-2/maxwin/BulkDock/SCRATCH/505734/C3764-P200/C3764-P200.minimised.mol

>  <scratch_subdir>  (899) 
/opt/xchem-fragalysis-2/maxwin/BulkDock/SCRATCH/505734/C3764-P200

>  <fragmenstein_runtime>  (899) 
13.333132266998291

>  <fragmenstein_outcome>  (899) 
too moved

>  <fragmenstein_mode>  (899) 
expansion

>  <fragmenstein_error>  (899) 


$$$$
C3764-P130
     RDKit          3D

 49 52  0  0  0  0  0  0  0  0999 V2000
   -1.5726   -1.3159   29.4914 C   0  0  0  0  0  0  0  0  0  0  0  0
   -0.1298   -1.7396   29.4541 N   0  0  0  0  0  0  0  0  0  0  0  0
   -0.0959   -0.7650   28.2966 C   0  0  0  0  0  0  0  0  0  0  0  0
   -0.2710    0.7381   28.4070 C   0  0  0  0  0  0  0  0  0  0  0  0
    0.6081    1.5290   29.1534 C   0  0  0  0  0  0  0  0  0  0  0  0
    0.4589    2.9153   29.1758 C   0  0  0  0  0  0  0  0  0  0  0  0
   -0.5661    3.5218   28.4511 C   0  0  0  0  0  0  0  0  0  0  0  0
   -1.4518    2.7460   27.7084 C   0  0  0  0  0  0  0  0  0  0  0  0
   -1.3013    1.3618   27.6796 C   0  0  0  0  0  0  0  0  0  0  0  0
    0.4522   -1.6486   30.7857 C   0  0  0  0  0  0  0  0  0  0  0  0
    1.0121   -0.7610   31.3121 O   0  0  0  0  0  0  0  0  0  0  0  0
    0.2184   -3.0015   31.2252 N   0  0  0  0  0  0  0  0  0  0  0  0
    0.5131   -3.6493   32.4732 C   0  0  0  0  0  0  0  0  0  0  0  0
    0.4597   -5.1417   32.2270 C   0  0  0  0  0  0  0  0  0  0  0  0
    0.9346   -5.7823   31.1096 C   0  0  0  0  0  0  0  0  0  0  0  0
    1.9835   -5.2341   30.1695 C   0  0  0  0  0  0  0  0  0  0  0  0
    2.9756   -4.3252   30.5416 C   0  0  0  0  0  0  0  0  0  0  0  0
    4.0008   -3.9389   29.7338 N   0  0  0  0  0  0  0  0  0  0  0  0
    4.0113   -4.4828   28.5070 C   0  0  0  0  0  0  0  0  0  0  0  0
    3.0634   -5.4073   28.1241 C   0  0  0  0  0  0  0  0  0  0  0  0
    2.0623   -5.8244   28.9436 N   0  0  0  0  0  0  0  0  0  0  0  0
    0.3260   -7.1021   30.8209 C   0  0  0  0  0  0  0  0  0  0  0  0
   -0.5240   -7.7316   31.6454 C   0  0  0  0  0  0  0  0  0  0  0  0
   -0.8102   -7.1557   32.8949 C   0  0  0  0  0  0  0  0  0  0  0  0
   -1.5140   -7.5849   33.9124 N   0  0  0  0  0  0  0  0  0  0  0  0
   -1.3960   -6.6654   34.9176 N   0  0  0  0  0  0  0  0  0  0  0  0
   -0.6298   -5.6858   34.4930 C   0  0  0  0  0  0  0  0  0  0  0  0
   -0.1645   -4.6576   35.2402 N   0  0  0  0  0  0  0  0  0  0  0  0
   -0.2920   -5.8998   33.1607 N   0  0  0  0  0  0  0  0  0  0  0  0
   -2.0389   -2.0043   30.2136 H   0  0  0  0  0  0  0  0  0  0  0  0
   -2.1632   -1.5029   28.5819 H   0  0  0  0  0  0  0  0  0  0  0  0
   -1.7466   -0.3427   29.9715 H   0  0  0  0  0  0  0  0  0  0  0  0
   -0.6309   -1.1754   27.4310 H   0  0  0  0  0  0  0  0  0  0  0  0
    0.9530   -0.8647   27.9731 H   0  0  0  0  0  0  0  0  0  0  0  0
    1.4246    1.0755   29.7104 H   0  0  0  0  0  0  0  0  0  0  0  0
    1.1406    3.5268   29.7613 H   0  0  0  0  0  0  0  0  0  0  0  0
   -0.6900    4.6021   28.4850 H   0  0  0  0  0  0  0  0  0  0  0  0
   -2.2643    3.2225   27.1636 H   0  0  0  0  0  0  0  0  0  0  0  0
   -1.9927    0.7706   27.0811 H   0  0  0  0  0  0  0  0  0  0  0  0
   -0.3733   -3.4705   30.5508 H   0  0  0  0  0  0  0  0  0  0  0  0
    1.4631   -3.3020   32.8850 H   0  0  0  0  0  0  0  0  0  0  0  0
   -0.2837   -3.3040   33.1372 H   0  0  0  0  0  0  0  0  0  0  0  0
    3.0262   -3.8861   31.5292 H   0  0  0  0  0  0  0  0  0  0  0  0
    4.8060   -4.1620   27.8437 H   0  0  0  0  0  0  0  0  0  0  0  0
    3.0865   -5.8502   27.1346 H   0  0  0  0  0  0  0  0  0  0  0  0
    0.5711   -7.5768   29.8783 H   0  0  0  0  0  0  0  0  0  0  0  0
   -0.9567   -8.6961   31.4055 H   0  0  0  0  0  0  0  0  0  0  0  0
   -0.4586   -4.7171   36.2149 H   0  0  0  0  0  0  0  0  0  0  0  0
    0.8262   -4.4432   35.1952 H   0  0  0  0  0  0  0  0  0  0  0  0
  1  2  1  0
  2  3  1  0
  3  4  1  0
  4  5  2  0
  5  6  1  0
  6  7  2  0
  7  8  1  0
  8  9  2  0
  2 10  1  0
 10 11  2  0
 10 12  1  0
 12 13  1  0
 13 14  1  0
 14 15  2  0
 15 16  1  0
 16 17  2  0
 17 18  1  0
 18 19  2  0
 19 20  1  0
 20 21  2  0
 15 22  1  0
 22 23  2  0
 23 24  1  0
 24 25  2  0
 25 26  1  0
 26 27  2  0
 27 28  1  0
 27 29  1  0
  9  4  1  0
 29 14  1  0
 21 16  1  0
 29 24  1  0
  1 30  1  0
  1 31  1  0
  1 32  1  0
  3 33  1  0
  3 34  1  0
  5 35  1  0
  6 36  1  0
  7 37  1  0
  8 38  1  0
  9 39  1  0
 12 40  1  0
 13 41  1  0
 13 42  1  0
 17 43  1  0
 19 44  1  0
 20 45  1  0
 22 46  1  0
 23 47  1  0
 28 48  1  0
 28 49  1  0
M  END
>  <Energy>  (900) 
110.51387075759887

>  <compound_id>  (900) 
3764

>  <target_id>  (900) 
1

>  <reference_id>  (900) 
130

>  <inspiration_ids>  (900) 
[130, 201]

>  <energy_score>  (900) 
38.850895187821635

>  <distance_score>  (900) 
2.296652489636704

>  <path>  (900) 
/opt/xchem-fragalysis-2/maxwin/BulkDock/SCRATCH/505734/C3764-P130/C3764-P130.minimised.mol

>  <scratch_subdir>  (900) 
/opt/xchem-fragalysis-2/maxwin/BulkDock/SCRATCH/505734/C3764-P130

>  <fragmenstein_runtime>  (900) 
12.98645567893982

>  <fragmenstein_outcome>  (900) 
too moved

>  <fragmenstein_mode>  (900) 
expansion

>  <fragmenstein_error>  (900) 


$$$$
C3764-P201
     RDKit          3D

 49 52  0  0  0  0  0  0  0  0999 V2000
   -0.4414   -2.3351   28.7824 C   0  0  0  0  0  0  0  0  0  0  0  0
   -0.6668   -1.7023   30.1271 N   0  0  0  0  0  0  0  0  0  0  0  0
   -1.6291   -0.8597   29.3290 C   0  0  0  0  0  0  0  0  0  0  0  0
   -1.0569    0.3966   28.6947 C   0  0  0  0  0  0  0  0  0  0  0  0
    0.1077    1.0089   29.1841 C   0  0  0  0  0  0  0  0  0  0  0  0
    0.5413    2.2250   28.6556 C   0  0  0  0  0  0  0  0  0  0  0  0
   -0.1878    2.8462   27.6434 C   0  0  0  0  0  0  0  0  0  0  0  0
   -1.3422    2.2467   27.1466 C   0  0  0  0  0  0  0  0  0  0  0  0
   -1.7698    1.0237   27.6616 C   0  0  0  0  0  0  0  0  0  0  0  0
   -0.9150   -2.7306   31.1291 C   0  0  0  0  0  0  0  0  0  0  0  0
   -1.9254   -3.2104   31.4912 O   0  0  0  0  0  0  0  0  0  0  0  0
    0.4564   -3.0214   31.5095 N   0  0  0  0  0  0  0  0  0  0  0  0
    1.0002   -4.0431   32.3686 C   0  0  0  0  0  0  0  0  0  0  0  0
    0.8150   -5.3630   31.6564 C   0  0  0  0  0  0  0  0  0  0  0  0
    1.4549   -5.6727   30.4875 C   0  0  0  0  0  0  0  0  0  0  0  0
    2.5577   -4.8551   29.9226 C   0  0  0  0  0  0  0  0  0  0  0  0
    2.6167   -4.5113   28.5741 C   0  0  0  0  0  0  0  0  0  0  0  0
    3.6673   -3.8649   28.0142 N   0  0  0  0  0  0  0  0  0  0  0  0
    4.6701   -3.5550   28.8641 C   0  0  0  0  0  0  0  0  0  0  0  0
    4.6289   -3.8960   30.2040 C   0  0  0  0  0  0  0  0  0  0  0  0
    3.5860   -4.5649   30.7532 N   0  0  0  0  0  0  0  0  0  0  0  0
    1.0767   -6.9117   29.8037 C   0  0  0  0  0  0  0  0  0  0  0  0
    0.1348   -7.7461   30.2609 C   0  0  0  0  0  0  0  0  0  0  0  0
   -0.4758   -7.4690   31.4965 C   0  0  0  0  0  0  0  0  0  0  0  0
   -1.3297   -8.1748   32.1921 N   0  0  0  0  0  0  0  0  0  0  0  0
   -1.4873   -7.5465   33.3926 N   0  0  0  0  0  0  0  0  0  0  0  0
   -0.7938   -6.4326   33.3799 C   0  0  0  0  0  0  0  0  0  0  0  0
   -0.7127   -5.5543   34.4086 N   0  0  0  0  0  0  0  0  0  0  0  0
   -0.1115   -6.3079   32.1751 N   0  0  0  0  0  0  0  0  0  0  0  0
   -1.2581   -2.9980   28.4763 H   0  0  0  0  0  0  0  0  0  0  0  0
    0.3801   -3.0416   28.9345 H   0  0  0  0  0  0  0  0  0  0  0  0
   -0.0456   -1.6856   27.9924 H   0  0  0  0  0  0  0  0  0  0  0  0
   -2.2794   -0.4674   30.1279 H   0  0  0  0  0  0  0  0  0  0  0  0
   -2.3777   -1.3889   28.7126 H   0  0  0  0  0  0  0  0  0  0  0  0
    0.6663    0.5595   30.0007 H   0  0  0  0  0  0  0  0  0  0  0  0
    1.4301    2.7067   29.0533 H   0  0  0  0  0  0  0  0  0  0  0  0
    0.1286    3.8114   27.2570 H   0  0  0  0  0  0  0  0  0  0  0  0
   -1.9279    2.7430   26.3764 H   0  0  0  0  0  0  0  0  0  0  0  0
   -2.6794    0.5785   27.2633 H   0  0  0  0  0  0  0  0  0  0  0  0
    1.0728   -2.3569   31.0596 H   0  0  0  0  0  0  0  0  0  0  0  0
    2.0500   -3.8159   32.5682 H   0  0  0  0  0  0  0  0  0  0  0  0
    0.4781   -3.9479   33.3146 H   0  0  0  0  0  0  0  0  0  0  0  0
    1.8113   -4.7472   27.8893 H   0  0  0  0  0  0  0  0  0  0  0  0
    5.5125   -3.0220   28.4374 H   0  0  0  0  0  0  0  0  0  0  0  0
    5.4409   -3.6439   30.8776 H   0  0  0  0  0  0  0  0  0  0  0  0
    1.6240   -7.1726   28.9029 H   0  0  0  0  0  0  0  0  0  0  0  0
   -0.1141   -8.6737   29.7570 H   0  0  0  0  0  0  0  0  0  0  0  0
   -1.4156   -4.8063   34.2954 H   0  0  0  0  0  0  0  0  0  0  0  0
   -1.0379   -6.0020   35.2668 H   0  0  0  0  0  0  0  0  0  0  0  0
  1  2  1  0
  2  3  1  0
  3  4  1  0
  4  5  2  0
  5  6  1  0
  6  7  2  0
  7  8  1  0
  8  9  2  0
  2 10  1  0
 10 11  2  0
 10 12  1  0
 12 13  1  0
 13 14  1  0
 14 15  2  0
 15 16  1  0
 16 17  2  0
 17 18  1  0
 18 19  2  0
 19 20  1  0
 20 21  2  0
 15 22  1  0
 22 23  2  0
 23 24  1  0
 24 25  2  0
 25 26  1  0
 26 27  2  0
 27 28  1  0
 27 29  1  0
  9  4  1  0
 29 14  1  0
 21 16  1  0
 29 24  1  0
  1 30  1  0
  1 31  1  0
  1 32  1  0
  3 33  1  0
  3 34  1  0
  5 35  1  0
  6 36  1  0
  7 37  1  0
  8 38  1  0
  9 39  1  0
 12 40  1  0
 13 41  1  0
 13 42  1  0
 17 43  1  0
 19 44  1  0
 20 45  1  0
 22 46  1  0
 23 47  1  0
 28 48  1  0
 28 49  1  0
M  END
>  <Energy>  (901) 
99.921700030838281

>  <compound_id>  (901) 
3764

>  <target_id>  (901) 
1

>  <reference_id>  (901) 
201

>  <inspiration_ids>  (901) 
[130, 201]

>  <energy_score>  (901) 
28.258724461057568

>  <distance_score>  (901) 
1.5233479075563627

>  <path>  (901) 
/opt/xchem-fragalysis-2/maxwin/BulkDock/SCRATCH/505734/C3764-P201/C3764-P201.minimised.mol

>  <scratch_subdir>  (901) 
/opt/xchem-fragalysis-2/maxwin/BulkDock/SCRATCH/505734/C3764-P201

>  <fragmenstein_runtime>  (901) 
12.5769944190979

>  <fragmenstein_outcome>  (901) 
too moved

>  <fragmenstein_mode>  (901) 
expansion

>  <fragmenstein_error>  (901) 


$$$$
C3765-P130
     RDKit          3D

 51 54  0  0  0  0  0  0  0  0999 V2000
    1.8128   -1.0783   28.3615 C   0  0  0  0  0  0  0  0  0  0  0  0
    1.4909   -0.6051   29.7581 N   0  0  0  0  0  0  0  0  0  0  0  0
    0.0739   -0.7431   29.2464 C   0  0  0  0  0  0  0  0  0  0  0  0
   -0.4996    0.5085   28.6048 C   0  0  0  0  0  0  0  0  0  0  0  0
   -0.0875    1.7876   29.0086 C   0  0  0  0  0  0  0  0  0  0  0  0
   -0.6388    2.9281   28.4243 C   0  0  0  0  0  0  0  0  0  0  0  0
   -1.6241    2.8042   27.4493 C   0  0  0  0  0  0  0  0  0  0  0  0
   -2.0485    1.5409   27.0475 C   0  0  0  0  0  0  0  0  0  0  0  0
   -1.4882    0.3968   27.6186 C   0  0  0  0  0  0  0  0  0  0  0  0
    2.2249   -1.3949   30.7338 C   0  0  0  0  0  0  0  0  0  0  0  0
    1.9217   -2.3856   31.2957 O   0  0  0  0  0  0  0  0  0  0  0  0
    3.4226   -0.5582   30.8601 N   0  0  0  0  0  0  0  0  0  0  0  0
    4.5832   -0.7342   31.6048 C   0  0  0  0  0  0  0  0  0  0  0  0
    5.4138    0.3275   31.5774 C   0  0  0  0  0  0  0  0  0  0  0  0
    6.7225    0.5093   32.1455 C   0  0  0  0  0  0  0  0  0  0  0  0
    7.5590   -0.4814   32.4609 C   0  0  0  0  0  0  0  0  0  0  0  0
    8.8908   -0.3153   32.8156 N   0  0  0  0  0  0  0  0  0  0  0  0
    9.4544   -1.5217   33.2017 N   0  0  0  0  0  0  0  0  0  0  0  0
    8.4828   -2.3752   32.9814 C   0  0  0  0  0  0  0  0  0  0  0  0
    7.2953   -1.8405   32.5024 N   0  0  0  0  0  0  0  0  0  0  0  0
    6.1157   -2.4635   32.7171 N   0  0  0  0  0  0  0  0  0  0  0  0
    4.9661   -1.9954   32.3725 C   0  0  0  0  0  0  0  0  0  0  0  0
    3.9032   -2.7823   32.7625 N   0  0  0  0  0  0  0  0  0  0  0  0
    3.8710   -4.1087   33.4893 C   0  0  0  0  0  0  0  0  0  0  0  0
    4.7477   -4.7373   33.9589 O   0  0  0  0  0  0  0  0  0  0  0  0
    2.3972   -4.3823   33.4518 N   0  0  0  0  0  0  0  0  0  0  0  0
    1.6847   -5.4662   33.8673 C   0  0  0  0  0  0  0  0  0  0  0  0
    2.1657   -6.6270   34.4979 C   0  0  0  0  0  0  0  0  0  0  0  0
    1.1994   -7.5191   34.7177 N   0  0  0  0  0  0  0  0  0  0  0  0
    0.0857   -6.8907   34.2990 N   0  0  0  0  0  0  0  0  0  0  0  0
    0.3303   -5.6556   33.7615 C   0  0  0  0  0  0  0  0  0  0  0  0
    1.6040   -2.1477   28.2029 H   0  0  0  0  0  0  0  0  0  0  0  0
    2.9105   -1.0371   28.2895 H   0  0  0  0  0  0  0  0  0  0  0  0
    1.4940   -0.4199   27.5439 H   0  0  0  0  0  0  0  0  0  0  0  0
   -0.2165   -1.6939   28.7648 H   0  0  0  0  0  0  0  0  0  0  0  0
   -0.4913   -0.8247   30.1900 H   0  0  0  0  0  0  0  0  0  0  0  0
    0.6604    1.9082   29.7881 H   0  0  0  0  0  0  0  0  0  0  0  0
   -0.3284    3.9181   28.7516 H   0  0  0  0  0  0  0  0  0  0  0  0
   -2.0830    3.6931   27.0210 H   0  0  0  0  0  0  0  0  0  0  0  0
   -2.8345    1.4486   26.3018 H   0  0  0  0  0  0  0  0  0  0  0  0
   -1.8374   -0.5808   27.2869 H   0  0  0  0  0  0  0  0  0  0  0  0
    3.3140    0.2665   30.2814 H   0  0  0  0  0  0  0  0  0  0  0  0
    5.1039    1.2178   31.0283 H   0  0  0  0  0  0  0  0  0  0  0  0
    7.0896    1.5322   32.1728 H   0  0  0  0  0  0  0  0  0  0  0  0
    9.1901    0.5542   33.2450 H   0  0  0  0  0  0  0  0  0  0  0  0
    8.5004   -3.4563   33.1863 H   0  0  0  0  0  0  0  0  0  0  0  0
    2.9879   -2.5693   32.4212 H   0  0  0  0  0  0  0  0  0  0  0  0
    1.9221   -3.5947   33.0409 H   0  0  0  0  0  0  0  0  0  0  0  0
    3.1825   -6.8603   34.7910 H   0  0  0  0  0  0  0  0  0  0  0  0
   -0.8014   -7.3762   34.3973 H   0  0  0  0  0  0  0  0  0  0  0  0
   -0.4723   -5.0465   33.3724 H   0  0  0  0  0  0  0  0  0  0  0  0
  1  2  1  0
  2  3  1  0
  3  4  1  0
  4  5  2  0
  5  6  1  0
  6  7  2  0
  7  8  1  0
  8  9  2  0
  2 10  1  0
 10 11  2  0
 10 12  1  0
 12 13  1  0
 13 14  2  0
 14 15  1  0
 15 16  2  0
 16 17  1  0
 17 18  1  0
 18 19  2  0
 19 20  1  0
 20 21  1  0
 21 22  2  0
 22 23  1  0
 23 24  1  0
 24 25  2  0
 24 26  1  0
 26 27  1  0
 27 28  1  0
 28 29  2  0
 29 30  1  0
 30 31  1  0
  9  4  1  0
 22 13  1  0
 31 27  2  0
 20 16  1  0
  1 32  1  0
  1 33  1  0
  1 34  1  0
  3 35  1  0
  3 36  1  0
  5 37  1  0
  6 38  1  0
  7 39  1  0
  8 40  1  0
  9 41  1  0
 12 42  1  0
 14 43  1  0
 15 44  1  0
 17 45  1  0
 19 46  1  0
 23 47  1  0
 26 48  1  0
 28 49  1  0
 30 50  1  0
 31 51  1  0
M  END
>  <Energy>  (902) 
79.651407440768239

>  <compound_id>  (902) 
3765

>  <target_id>  (902) 
1

>  <reference_id>  (902) 
130

>  <inspiration_ids>  (902) 
[130, 202]

>  <energy_score>  (902) 
0.3118699608982638

>  <distance_score>  (902) 
4.034770766316569

>  <path>  (902) 
/opt/xchem-fragalysis-2/maxwin/BulkDock/SCRATCH/505734/C3765-P130/C3765-P130.minimised.mol

>  <scratch_subdir>  (902) 
/opt/xchem-fragalysis-2/maxwin/BulkDock/SCRATCH/505734/C3765-P130

>  <fragmenstein_runtime>  (902) 
13.12749719619751

>  <fragmenstein_outcome>  (902) 
too moved

>  <fragmenstein_mode>  (902) 
expansion

>  <fragmenstein_error>  (902) 


$$$$
C3765-P202
     RDKit          3D

 51 54  0  0  0  0  0  0  0  0999 V2000
   -1.0862   -0.8879   30.4621 C   0  0  0  0  0  0  0  0  0  0  0  0
   -0.2614   -2.0323   29.9348 N   0  0  0  0  0  0  0  0  0  0  0  0
   -0.4908   -1.3037   28.6094 C   0  0  0  0  0  0  0  0  0  0  0  0
   -0.1473    0.1562   28.3190 C   0  0  0  0  0  0  0  0  0  0  0  0
    1.1013    0.7106   28.6168 C   0  0  0  0  0  0  0  0  0  0  0  0
    1.3385    2.0699   28.4022 C   0  0  0  0  0  0  0  0  0  0  0  0
    0.3404    2.8837   27.8684 C   0  0  0  0  0  0  0  0  0  0  0  0
   -0.8917    2.3369   27.5259 C   0  0  0  0  0  0  0  0  0  0  0  0
   -1.1277    0.9799   27.7374 C   0  0  0  0  0  0  0  0  0  0  0  0
    0.9628   -2.1883   30.7411 C   0  0  0  0  0  0  0  0  0  0  0  0
    2.0320   -1.7152   30.6012 O   0  0  0  0  0  0  0  0  0  0  0  0
    0.4784   -3.1751   31.7120 N   0  0  0  0  0  0  0  0  0  0  0  0
    1.1113   -3.7798   32.7744 C   0  0  0  0  0  0  0  0  0  0  0  0
    2.4445   -3.8716   32.8635 C   0  0  0  0  0  0  0  0  0  0  0  0
    3.1944   -4.7166   33.7630 C   0  0  0  0  0  0  0  0  0  0  0  0
    2.7176   -5.8532   34.2913 C   0  0  0  0  0  0  0  0  0  0  0  0
    3.4963   -6.8256   34.9079 N   0  0  0  0  0  0  0  0  0  0  0  0
    2.7056   -7.8366   35.4295 N   0  0  0  0  0  0  0  0  0  0  0  0
    1.4984   -7.4776   35.0708 C   0  0  0  0  0  0  0  0  0  0  0  0
    1.4004   -6.3160   34.3243 N   0  0  0  0  0  0  0  0  0  0  0  0
    0.2688   -5.5684   34.3842 N   0  0  0  0  0  0  0  0  0  0  0  0
    0.2054   -4.4353   33.7815 C   0  0  0  0  0  0  0  0  0  0  0  0
   -0.9219   -3.7150   34.1038 N   0  0  0  0  0  0  0  0  0  0  0  0
   -1.2168   -2.2361   33.9858 C   0  0  0  0  0  0  0  0  0  0  0  0
   -0.5181   -1.3493   33.6622 O   0  0  0  0  0  0  0  0  0  0  0  0
   -2.6675   -2.2464   34.3013 N   0  0  0  0  0  0  0  0  0  0  0  0
   -3.5968   -1.2655   34.2169 C   0  0  0  0  0  0  0  0  0  0  0  0
   -3.4105    0.0657   33.8230 C   0  0  0  0  0  0  0  0  0  0  0  0
   -4.5700    0.7246   33.7315 N   0  0  0  0  0  0  0  0  0  0  0  0
   -5.4760   -0.1816   34.1549 N   0  0  0  0  0  0  0  0  0  0  0  0
   -4.9412   -1.4044   34.4301 C   0  0  0  0  0  0  0  0  0  0  0  0
   -2.0448   -0.6675   29.9695 H   0  0  0  0  0  0  0  0  0  0  0  0
   -0.4907   -0.0068   30.7355 H   0  0  0  0  0  0  0  0  0  0  0  0
   -1.4420   -1.2468   31.4333 H   0  0  0  0  0  0  0  0  0  0  0  0
    0.1945   -1.8546   27.9527 H   0  0  0  0  0  0  0  0  0  0  0  0
   -1.4859   -1.5825   28.2230 H   0  0  0  0  0  0  0  0  0  0  0  0
    1.8952    0.0985   29.0355 H   0  0  0  0  0  0  0  0  0  0  0  0
    2.3045    2.4962   28.6607 H   0  0  0  0  0  0  0  0  0  0  0  0
    0.5234    3.9447   27.7181 H   0  0  0  0  0  0  0  0  0  0  0  0
   -1.6729    2.9679   27.1071 H   0  0  0  0  0  0  0  0  0  0  0  0
   -2.0916    0.5675   27.4514 H   0  0  0  0  0  0  0  0  0  0  0  0
   -0.5163   -3.2921   31.5961 H   0  0  0  0  0  0  0  0  0  0  0  0
    3.0634   -3.3694   32.1215 H   0  0  0  0  0  0  0  0  0  0  0  0
    4.2577   -4.5007   33.8290 H   0  0  0  0  0  0  0  0  0  0  0  0
    4.3399   -6.5327   35.3961 H   0  0  0  0  0  0  0  0  0  0  0  0
    0.5563   -7.9818   35.3333 H   0  0  0  0  0  0  0  0  0  0  0  0
   -1.7237   -4.1863   34.4896 H   0  0  0  0  0  0  0  0  0  0  0  0
   -2.9671   -3.1974   34.4638 H   0  0  0  0  0  0  0  0  0  0  0  0
   -2.4863    0.5702   33.5661 H   0  0  0  0  0  0  0  0  0  0  0  0
   -6.4494    0.1020   34.2114 H   0  0  0  0  0  0  0  0  0  0  0  0
   -5.5572   -2.2374   34.7339 H   0  0  0  0  0  0  0  0  0  0  0  0
  1  2  1  0
  2  3  1  0
  3  4  1  0
  4  5  2  0
  5  6  1  0
  6  7  2  0
  7  8  1  0
  8  9  2  0
  2 10  1  0
 10 11  2  0
 10 12  1  0
 12 13  1  0
 13 14  2  0
 14 15  1  0
 15 16  2  0
 16 17  1  0
 17 18  1  0
 18 19  2  0
 19 20  1  0
 20 21  1  0
 21 22  2  0
 22 23  1  0
 23 24  1  0
 24 25  2  0
 24 26  1  0
 26 27  1  0
 27 28  1  0
 28 29  2  0
 29 30  1  0
 30 31  1  0
  9  4  1  0
 22 13  1  0
 31 27  2  0
 20 16  1  0
  1 32  1  0
  1 33  1  0
  1 34  1  0
  3 35  1  0
  3 36  1  0
  5 37  1  0
  6 38  1  0
  7 39  1  0
  8 40  1  0
  9 41  1  0
 12 42  1  0
 14 43  1  0
 15 44  1  0
 17 45  1  0
 19 46  1  0
 23 47  1  0
 26 48  1  0
 28 49  1  0
 30 50  1  0
 31 51  1  0
M  END
>  <Energy>  (903) 
96.154677077427721

>  <compound_id>  (903) 
3765

>  <target_id>  (903) 
1

>  <reference_id>  (903) 
202

>  <inspiration_ids>  (903) 
[130, 202]

>  <energy_score>  (903) 
16.815139597553696

>  <distance_score>  (903) 
4.395557221869955

>  <path>  (903) 
/opt/xchem-fragalysis-2/maxwin/BulkDock/SCRATCH/505734/C3765-P202/C3765-P202.minimised.mol

>  <scratch_subdir>  (903) 
/opt/xchem-fragalysis-2/maxwin/BulkDock/SCRATCH/505734/C3765-P202

>  <fragmenstein_runtime>  (903) 
11.36386251449585

>  <fragmenstein_outcome>  (903) 
too moved

>  <fragmenstein_mode>  (903) 
expansion

>  <fragmenstein_error>  (903) 


$$$$
C2371-P131
     RDKit          3D

 52 55  0  0  0  0  0  0  0  0999 V2000
   -0.1133   -2.7948   28.7342 C   0  0  0  0  0  0  0  0  0  0  0  0
   -0.2003   -1.5577   29.5845 N   0  0  0  0  0  0  0  0  0  0  0  0
   -0.5701   -0.9345   28.2621 C   0  0  0  0  0  0  0  0  0  0  0  0
   -0.6013    0.5866   28.4002 C   0  0  0  0  0  0  0  0  0  0  0  0
    0.3783    1.2743   29.1325 C   0  0  0  0  0  0  0  0  0  0  0  0
    0.3926    2.6686   29.1590 C   0  0  0  0  0  0  0  0  0  0  0  0
   -0.5660    3.3883   28.4486 C   0  0  0  0  0  0  0  0  0  0  0  0
   -1.5387    2.7177   27.7111 C   0  0  0  0  0  0  0  0  0  0  0  0
   -1.5502    1.3245   27.6776 C   0  0  0  0  0  0  0  0  0  0  0  0
   -1.0048   -1.8190   30.7598 C   0  0  0  0  0  0  0  0  0  0  0  0
   -2.1577   -1.6891   30.9352 O   0  0  0  0  0  0  0  0  0  0  0  0
    0.0201   -2.3474   31.6237 N   0  0  0  0  0  0  0  0  0  0  0  0
   -0.0367   -2.7821   32.9742 C   0  0  0  0  0  0  0  0  0  0  0  0
    0.8663   -3.9759   33.1455 C   0  0  0  0  0  0  0  0  0  0  0  0
    2.2138   -3.6752   33.6542 C   0  0  0  0  0  0  0  0  0  0  0  0
    3.0226   -4.6347   34.1355 C   0  0  0  0  0  0  0  0  0  0  0  0
    2.5384   -5.9613   34.2051 C   0  0  0  0  0  0  0  0  0  0  0  0
    3.0502   -7.0687   34.6949 N   0  0  0  0  0  0  0  0  0  0  0  0
    2.0645   -8.0184   34.6702 N   0  0  0  0  0  0  0  0  0  0  0  0
    0.9894   -7.4692   34.1434 C   0  0  0  0  0  0  0  0  0  0  0  0
    1.2780   -6.2168   33.6862 N   0  0  0  0  0  0  0  0  0  0  0  0
    0.4883   -5.2761   33.0191 C   0  0  0  0  0  0  0  0  0  0  0  0
   -1.0221   -5.7312   32.3215 S   0  0  0  0  0  0  0  0  0  0  0  0
   -0.7826   -6.9859   30.9807 C   0  0  0  0  0  0  0  0  0  0  0  0
   -2.1407   -7.5839   30.6317 C   0  0  0  0  0  0  0  0  0  0  0  0
   -2.8647   -8.2854   31.6050 C   0  0  0  0  0  0  0  0  0  0  0  0
   -4.3815   -8.6290   31.4124 C   0  0  0  0  0  0  0  0  0  0  0  0
   -5.6253   -8.5181   30.1659 N   0  0  0  0  0  0  0  0  0  0  0  0
   -4.6702   -7.9128   29.0256 C   0  0  0  0  0  0  0  0  0  0  0  0
   -2.9440   -7.4556   29.3299 C   0  0  0  0  0  0  0  0  0  0  0  0
    0.1252   -3.6224   29.4201 H   0  0  0  0  0  0  0  0  0  0  0  0
   -1.0638   -3.1256   28.3001 H   0  0  0  0  0  0  0  0  0  0  0  0
    0.7518   -2.8006   28.0587 H   0  0  0  0  0  0  0  0  0  0  0  0
   -1.5865   -1.2293   27.9576 H   0  0  0  0  0  0  0  0  0  0  0  0
    0.1889   -1.0586   27.4805 H   0  0  0  0  0  0  0  0  0  0  0  0
    1.1404    0.7262   29.6796 H   0  0  0  0  0  0  0  0  0  0  0  0
    1.1440    3.1984   29.7375 H   0  0  0  0  0  0  0  0  0  0  0  0
   -0.5745    4.4752   28.4896 H   0  0  0  0  0  0  0  0  0  0  0  0
   -2.3009    3.2817   27.1774 H   0  0  0  0  0  0  0  0  0  0  0  0
   -2.3073    0.8190   27.0821 H   0  0  0  0  0  0  0  0  0  0  0  0
    0.9192   -2.2314   31.1781 H   0  0  0  0  0  0  0  0  0  0  0  0
    0.2698   -1.9448   33.6111 H   0  0  0  0  0  0  0  0  0  0  0  0
   -1.0773   -2.9982   33.2376 H   0  0  0  0  0  0  0  0  0  0  0  0
    2.5582   -2.6437   33.6232 H   0  0  0  0  0  0  0  0  0  0  0  0
    4.0149   -4.4134   34.5130 H   0  0  0  0  0  0  0  0  0  0  0  0
    0.0080   -7.9192   34.0775 H   0  0  0  0  0  0  0  0  0  0  0  0
   -0.1111   -7.7796   31.3177 H   0  0  0  0  0  0  0  0  0  0  0  0
   -0.3386   -6.4966   30.1111 H   0  0  0  0  0  0  0  0  0  0  0  0
   -2.4288   -8.4631   32.5894 H   0  0  0  0  0  0  0  0  0  0  0  0
   -4.8153   -8.7182   32.3936 H   0  0  0  0  0  0  0  0  0  0  0  0
   -5.1134   -8.0659   28.0338 H   0  0  0  0  0  0  0  0  0  0  0  0
   -2.3825   -7.1828   28.4224 H   0  0  0  0  0  0  0  0  0  0  0  0
  1  2  1  0
  2  3  1  0
  3  4  1  0
  4  5  2  0
  5  6  1  0
  6  7  2  0
  7  8  1  0
  8  9  2  0
  2 10  1  0
 10 11  2  0
 10 12  1  0
 12 13  1  0
 13 14  1  0
 14 15  1  0
 15 16  2  0
 16 17  1  0
 17 18  2  0
 18 19  1  0
 19 20  2  0
 20 21  1  0
 21 22  1  0
 22 23  1  0
 23 24  1  0
 24 25  1  0
 25 26  2  0
 26 27  1  0
 27 28  2  0
 28 29  1  0
 29 30  2  0
  9  4  1  0
 22 14  2  0
 30 25  1  0
 21 17  1  0
  1 31  1  0
  1 32  1  0
  1 33  1  0
  3 34  1  0
  3 35  1  0
  5 36  1  0
  6 37  1  0
  7 38  1  0
  8 39  1  0
  9 40  1  0
 12 41  1  0
 13 42  1  0
 13 43  1  0
 15 44  1  0
 16 45  1  0
 20 46  1  0
 24 47  1  0
 24 48  1  0
 26 49  1  0
 27 50  1  0
 29 51  1  0
 30 52  1  0
M  END
>  <Energy>  (904) 
215.3266047573448

>  <compound_id>  (904) 
2371

>  <target_id>  (904) 
1

>  <reference_id>  (904) 
131

>  <inspiration_ids>  (904) 
[131, 25]

>  <energy_score>  (904) 
155.54540595553289

>  <distance_score>  (904) 
1.9988870559393888

>  <path>  (904) 
/opt/xchem-fragalysis-2/maxwin/BulkDock/SCRATCH/505734/C2371-P131/C2371-P131.minimised.mol

>  <scratch_subdir>  (904) 
/opt/xchem-fragalysis-2/maxwin/BulkDock/SCRATCH/505734/C2371-P131

>  <fragmenstein_runtime>  (904) 
8.013667106628418

>  <fragmenstein_outcome>  (904) 
too moved

>  <fragmenstein_mode>  (904) 
expansion

>  <fragmenstein_error>  (904) 


$$$$
C2371-P25
     RDKit          3D

 52 55  0  0  0  0  0  0  0  0999 V2000
    1.6836   -1.1276   28.4855 C   0  0  0  0  0  0  0  0  0  0  0  0
    1.2027   -1.1298   29.9201 N   0  0  0  0  0  0  0  0  0  0  0  0
    1.2546    0.3666   29.7151 C   0  0  0  0  0  0  0  0  0  0  0  0
    0.4136    1.2095   28.7590 C   0  0  0  0  0  0  0  0  0  0  0  0
    0.8395    2.5353   28.5508 C   0  0  0  0  0  0  0  0  0  0  0  0
    0.1200    3.4097   27.7362 C   0  0  0  0  0  0  0  0  0  0  0  0
   -1.0368    2.9746   27.1034 C   0  0  0  0  0  0  0  0  0  0  0  0
   -1.4784    1.6714   27.2985 C   0  0  0  0  0  0  0  0  0  0  0  0
   -0.7750    0.8030   28.1391 C   0  0  0  0  0  0  0  0  0  0  0  0
    0.0609   -2.0277   30.0653 C   0  0  0  0  0  0  0  0  0  0  0  0
   -1.0883   -1.8145   29.9693 O   0  0  0  0  0  0  0  0  0  0  0  0
    0.7662   -3.2522   30.3827 N   0  0  0  0  0  0  0  0  0  0  0  0
    0.2842   -4.5853   30.5806 C   0  0  0  0  0  0  0  0  0  0  0  0
   -0.0192   -4.9267   32.0333 C   0  0  0  0  0  0  0  0  0  0  0  0
    0.2909   -3.9165   33.0571 C   0  0  0  0  0  0  0  0  0  0  0  0
    0.1593   -4.1499   34.3704 C   0  0  0  0  0  0  0  0  0  0  0  0
   -0.2710   -5.4189   34.8052 C   0  0  0  0  0  0  0  0  0  0  0  0
   -0.4196   -5.9115   36.0141 N   0  0  0  0  0  0  0  0  0  0  0  0
   -0.8061   -7.2123   35.8858 N   0  0  0  0  0  0  0  0  0  0  0  0
   -0.8702   -7.4774   34.6028 C   0  0  0  0  0  0  0  0  0  0  0  0
   -0.5999   -6.3700   33.8406 N   0  0  0  0  0  0  0  0  0  0  0  0
   -0.5336   -6.1303   32.4407 C   0  0  0  0  0  0  0  0  0  0  0  0
   -0.9578   -7.3091   31.2064 S   0  0  0  0  0  0  0  0  0  0  0  0
   -2.2459   -8.3966   31.7626 C   0  0  0  0  0  0  0  0  0  0  0  0
   -3.6590   -8.3365   31.0977 C   0  0  0  0  0  0  0  0  0  0  0  0
   -4.7888   -8.2997   32.0807 C   0  0  0  0  0  0  0  0  0  0  0  0
   -6.2387   -7.1819   31.9259 C   0  0  0  0  0  0  0  0  0  0  0  0
   -6.5003   -6.3893   30.7726 N   0  0  0  0  0  0  0  0  0  0  0  0
   -5.7544   -6.7213   29.3152 C   0  0  0  0  0  0  0  0  0  0  0  0
   -4.1960   -7.7482   29.4082 C   0  0  0  0  0  0  0  0  0  0  0  0
    2.6005   -0.5608   28.2598 H   0  0  0  0  0  0  0  0  0  0  0  0
    2.0131   -2.1639   28.3116 H   0  0  0  0  0  0  0  0  0  0  0  0
    0.8888   -1.0228   27.7417 H   0  0  0  0  0  0  0  0  0  0  0  0
    2.3047    0.7078   29.7474 H   0  0  0  0  0  0  0  0  0  0  0  0
    0.8749    0.7045   30.6939 H   0  0  0  0  0  0  0  0  0  0  0  0
    1.7337    2.9121   29.0437 H   0  0  0  0  0  0  0  0  0  0  0  0
    0.4511    4.4368   27.6082 H   0  0  0  0  0  0  0  0  0  0  0  0
   -1.6114    3.6556   26.4799 H   0  0  0  0  0  0  0  0  0  0  0  0
   -2.3934    1.3373   26.8155 H   0  0  0  0  0  0  0  0  0  0  0  0
   -1.1815   -0.1943   28.2802 H   0  0  0  0  0  0  0  0  0  0  0  0
    1.7592   -3.0924   30.2986 H   0  0  0  0  0  0  0  0  0  0  0  0
   -0.6071   -4.6664   29.9621 H   0  0  0  0  0  0  0  0  0  0  0  0
    1.0575   -5.2510   30.1881 H   0  0  0  0  0  0  0  0  0  0  0  0
    0.6086   -2.9243   32.7490 H   0  0  0  0  0  0  0  0  0  0  0  0
    0.3721   -3.3865   35.1107 H   0  0  0  0  0  0  0  0  0  0  0  0
   -1.0818   -8.4531   34.2148 H   0  0  0  0  0  0  0  0  0  0  0  0
   -1.8353   -9.4021   31.6645 H   0  0  0  0  0  0  0  0  0  0  0  0
   -2.4002   -8.2562   32.8217 H   0  0  0  0  0  0  0  0  0  0  0  0
   -4.8036   -8.7537   33.0784 H   0  0  0  0  0  0  0  0  0  0  0  0
   -7.0003   -7.1260   32.7327 H   0  0  0  0  0  0  0  0  0  0  0  0
   -5.9144   -5.8308   28.6597 H   0  0  0  0  0  0  0  0  0  0  0  0
   -3.3008   -7.5724   28.7467 H   0  0  0  0  0  0  0  0  0  0  0  0
  1  2  1  0
  2  3  1  0
  3  4  1  0
  4  5  2  0
  5  6  1  0
  6  7  2  0
  7  8  1  0
  8  9  2  0
  2 10  1  0
 10 11  2  0
 10 12  1  0
 12 13  1  0
 13 14  1  0
 14 15  1  0
 15 16  2  0
 16 17  1  0
 17 18  2  0
 18 19  1  0
 19 20  2  0
 20 21  1  0
 21 22  1  0
 22 23  1  0
 23 24  1  0
 24 25  1  0
 25 26  2  0
 26 27  1  0
 27 28  2  0
 28 29  1  0
 29 30  2  0
  9  4  1  0
 22 14  2  0
 30 25  1  0
 21 17  1  0
  1 31  1  0
  1 32  1  0
  1 33  1  0
  3 34  1  0
  3 35  1  0
  5 36  1  0
  6 37  1  0
  7 38  1  0
  8 39  1  0
  9 40  1  0
 12 41  1  0
 13 42  1  0
 13 43  1  0
 15 44  1  0
 16 45  1  0
 20 46  1  0
 24 47  1  0
 24 48  1  0
 26 49  1  0
 27 50  1  0
 29 51  1  0
 30 52  1  0
M  END
>  <Energy>  (905) 
325.29668203641137

>  <compound_id>  (905) 
2371

>  <target_id>  (905) 
1

>  <reference_id>  (905) 
25

>  <inspiration_ids>  (905) 
[131, 25]

>  <energy_score>  (905) 
265.51548323459895

>  <distance_score>  (905) 
2.2117896598440914

>  <path>  (905) 
/opt/xchem-fragalysis-2/maxwin/BulkDock/SCRATCH/505734/C2371-P25/C2371-P25.minimised.mol

>  <scratch_subdir>  (905) 
/opt/xchem-fragalysis-2/maxwin/BulkDock/SCRATCH/505734/C2371-P25

>  <fragmenstein_runtime>  (905) 
8.060846328735352

>  <fragmenstein_outcome>  (905) 
too moved

>  <fragmenstein_mode>  (905) 
expansion

>  <fragmenstein_error>  (905) 


$$$$
C2371-P131
     RDKit          3D

 52 55  0  0  0  0  0  0  0  0999 V2000
   -0.4113   -1.8860   28.9316 C   0  0  0  0  0  0  0  0  0  0  0  0
   -0.8527   -1.2706   30.2433 N   0  0  0  0  0  0  0  0  0  0  0  0
   -1.6898   -0.4364   29.3232 C   0  0  0  0  0  0  0  0  0  0  0  0
   -1.0417    0.8355   28.8026 C   0  0  0  0  0  0  0  0  0  0  0  0
    0.0124    1.4593   29.4870 C   0  0  0  0  0  0  0  0  0  0  0  0
    0.5455    2.6594   29.0185 C   0  0  0  0  0  0  0  0  0  0  0  0
    0.0254    3.2513   27.8694 C   0  0  0  0  0  0  0  0  0  0  0  0
   -1.0226    2.6426   27.1830 C   0  0  0  0  0  0  0  0  0  0  0  0
   -1.5519    1.4387   27.6442 C   0  0  0  0  0  0  0  0  0  0  0  0
   -1.2369   -2.3199   31.1876 C   0  0  0  0  0  0  0  0  0  0  0  0
   -2.2830   -2.8184   31.3850 O   0  0  0  0  0  0  0  0  0  0  0  0
    0.0385   -2.5077   31.8579 N   0  0  0  0  0  0  0  0  0  0  0  0
    0.3859   -3.2825   33.0183 C   0  0  0  0  0  0  0  0  0  0  0  0
    0.0771   -4.7588   32.8717 C   0  0  0  0  0  0  0  0  0  0  0  0
   -0.3678   -5.3910   34.1334 C   0  0  0  0  0  0  0  0  0  0  0  0
   -0.8847   -6.6328   34.1842 C   0  0  0  0  0  0  0  0  0  0  0  0
   -1.0068   -7.3712   32.9877 C   0  0  0  0  0  0  0  0  0  0  0  0
   -1.5816   -8.5115   32.6884 N   0  0  0  0  0  0  0  0  0  0  0  0
   -1.3682   -8.7762   31.3610 N   0  0  0  0  0  0  0  0  0  0  0  0
   -0.6763   -7.7770   30.8832 C   0  0  0  0  0  0  0  0  0  0  0  0
   -0.4718   -6.8223   31.8438 N   0  0  0  0  0  0  0  0  0  0  0  0
    0.0843   -5.5376   31.7582 C   0  0  0  0  0  0  0  0  0  0  0  0
    0.5792   -5.0528   30.1737 S   0  0  0  0  0  0  0  0  0  0  0  0
    2.3101   -4.5957   30.3783 C   0  0  0  0  0  0  0  0  0  0  0  0
    2.9536   -4.4363   29.0247 C   0  0  0  0  0  0  0  0  0  0  0  0
    3.1486   -5.5334   28.1767 C   0  0  0  0  0  0  0  0  0  0  0  0
    3.6820   -5.3206   26.9168 C   0  0  0  0  0  0  0  0  0  0  0  0
    4.0268   -4.1045   26.4535 N   0  0  0  0  0  0  0  0  0  0  0  0
    3.8556   -3.0585   27.2892 C   0  0  0  0  0  0  0  0  0  0  0  0
    3.3245   -3.1716   28.5628 C   0  0  0  0  0  0  0  0  0  0  0  0
    0.4727   -2.4744   29.1885 H   0  0  0  0  0  0  0  0  0  0  0  0
   -0.0106   -1.2235   28.1518 H   0  0  0  0  0  0  0  0  0  0  0  0
   -1.1346   -2.6227   28.5525 H   0  0  0  0  0  0  0  0  0  0  0  0
   -2.4533   -0.0599   30.0220 H   0  0  0  0  0  0  0  0  0  0  0  0
   -2.3174   -0.9732   28.5897 H   0  0  0  0  0  0  0  0  0  0  0  0
    0.4074    1.0275   30.4025 H   0  0  0  0  0  0  0  0  0  0  0  0
    1.3474    3.1509   29.5624 H   0  0  0  0  0  0  0  0  0  0  0  0
    0.4189    4.2029   27.5215 H   0  0  0  0  0  0  0  0  0  0  0  0
   -1.4482    3.1203   26.3037 H   0  0  0  0  0  0  0  0  0  0  0  0
   -2.3813    0.9882   27.1027 H   0  0  0  0  0  0  0  0  0  0  0  0
    0.7093   -1.8539   31.4804 H   0  0  0  0  0  0  0  0  0  0  0  0
    1.4502   -3.1361   33.2280 H   0  0  0  0  0  0  0  0  0  0  0  0
   -0.1897   -2.8450   33.8417 H   0  0  0  0  0  0  0  0  0  0  0  0
   -0.3184   -4.8113   35.0527 H   0  0  0  0  0  0  0  0  0  0  0  0
   -1.2469   -7.0718   35.1100 H   0  0  0  0  0  0  0  0  0  0  0  0
   -0.3357   -7.6904   29.8684 H   0  0  0  0  0  0  0  0  0  0  0  0
    2.3937   -3.6654   30.9472 H   0  0  0  0  0  0  0  0  0  0  0  0
    2.8291   -5.3641   30.9505 H   0  0  0  0  0  0  0  0  0  0  0  0
    2.8607   -6.5295   28.4797 H   0  0  0  0  0  0  0  0  0  0  0  0
    3.8486   -6.1405   26.2230 H   0  0  0  0  0  0  0  0  0  0  0  0
    4.1537   -2.0919   26.8913 H   0  0  0  0  0  0  0  0  0  0  0  0
    3.1925   -2.2797   29.1673 H   0  0  0  0  0  0  0  0  0  0  0  0
  1  2  1  0
  2  3  1  0
  3  4  1  0
  4  5  2  0
  5  6  1  0
  6  7  2  0
  7  8  1  0
  8  9  2  0
  2 10  1  0
 10 11  2  0
 10 12  1  0
 12 13  1  0
 13 14  1  0
 14 15  1  0
 15 16  2  0
 16 17  1  0
 17 18  2  0
 18 19  1  0
 19 20  2  0
 20 21  1  0
 21 22  1  0
 22 23  1  0
 23 24  1  0
 24 25  1  0
 25 26  2  0
 26 27  1  0
 27 28  2  0
 28 29  1  0
 29 30  2  0
  9  4  1  0
 22 14  2  0
 30 25  1  0
 21 17  1  0
  1 31  1  0
  1 32  1  0
  1 33  1  0
  3 34  1  0
  3 35  1  0
  5 36  1  0
  6 37  1  0
  7 38  1  0
  8 39  1  0
  9 40  1  0
 12 41  1  0
 13 42  1  0
 13 43  1  0
 15 44  1  0
 16 45  1  0
 20 46  1  0
 24 47  1  0
 24 48  1  0
 26 49  1  0
 27 50  1  0
 29 51  1  0
 30 52  1  0
M  END
>  <Energy>  (906) 
73.303674246077975

>  <compound_id>  (906) 
2371

>  <target_id>  (906) 
1

>  <reference_id>  (906) 
131

>  <inspiration_ids>  (906) 
[131, 40]

>  <energy_score>  (906) 
56.459934889312294

>  <distance_score>  (906) 
1.9848265945692218

>  <path>  (906) 
/opt/xchem-fragalysis-2/maxwin/BulkDock/SCRATCH/505734/C2371-P131/C2371-P131.minimised.mol

>  <scratch_subdir>  (906) 
/opt/xchem-fragalysis-2/maxwin/BulkDock/SCRATCH/505734/C2371-P131

>  <fragmenstein_runtime>  (906) 
18.690332412719727

>  <fragmenstein_outcome>  (906) 
too moved

>  <fragmenstein_mode>  (906) 
expansion

>  <fragmenstein_error>  (906) 


$$$$
C2371-P40
     RDKit          3D

 52 55  0  0  0  0  0  0  0  0999 V2000
   -1.3102   -2.3996   28.9384 C   0  0  0  0  0  0  0  0  0  0  0  0
   -0.7924   -1.2950   29.8071 N   0  0  0  0  0  0  0  0  0  0  0  0
   -0.8378   -0.5355   28.4929 C   0  0  0  0  0  0  0  0  0  0  0  0
   -0.3407    0.8912   28.6921 C   0  0  0  0  0  0  0  0  0  0  0  0
    0.7144    1.1978   29.5617 C   0  0  0  0  0  0  0  0  0  0  0  0
    1.1541    2.5144   29.6972 C   0  0  0  0  0  0  0  0  0  0  0  0
    0.5561    3.5311   28.9545 C   0  0  0  0  0  0  0  0  0  0  0  0
   -0.4766    3.2353   28.0684 C   0  0  0  0  0  0  0  0  0  0  0  0
   -0.9186    1.9216   27.9314 C   0  0  0  0  0  0  0  0  0  0  0  0
   -1.6204   -1.1680   31.0079 C   0  0  0  0  0  0  0  0  0  0  0  0
   -2.5713   -0.5089   31.2070 O   0  0  0  0  0  0  0  0  0  0  0  0
   -0.8807   -2.0471   31.8971 N   0  0  0  0  0  0  0  0  0  0  0  0
   -1.0288   -2.3005   33.2974 C   0  0  0  0  0  0  0  0  0  0  0  0
   -0.5492   -3.6404   33.8155 C   0  0  0  0  0  0  0  0  0  0  0  0
   -0.4432   -3.6170   35.2961 C   0  0  0  0  0  0  0  0  0  0  0  0
   -0.0083   -4.6621   36.0206 C   0  0  0  0  0  0  0  0  0  0  0  0
    0.3356   -5.8594   35.3587 C   0  0  0  0  0  0  0  0  0  0  0  0
    0.8657   -6.9891   35.7738 N   0  0  0  0  0  0  0  0  0  0  0  0
    0.9300   -7.8402   34.6983 N   0  0  0  0  0  0  0  0  0  0  0  0
    0.4119   -7.2130   33.6681 C   0  0  0  0  0  0  0  0  0  0  0  0
    0.1314   -5.9120   33.9909 N   0  0  0  0  0  0  0  0  0  0  0  0
   -0.2450   -4.8114   33.1941 C   0  0  0  0  0  0  0  0  0  0  0  0
   -0.2065   -5.0315   31.4627 S   0  0  0  0  0  0  0  0  0  0  0  0
    1.5587   -4.6719   31.1954 C   0  0  0  0  0  0  0  0  0  0  0  0
    1.9233   -4.5379   29.7418 C   0  0  0  0  0  0  0  0  0  0  0  0
    2.0391   -5.6524   28.9062 C   0  0  0  0  0  0  0  0  0  0  0  0
    2.4915   -5.4727   27.6092 C   0  0  0  0  0  0  0  0  0  0  0  0
    2.7653   -4.2694   27.0744 N   0  0  0  0  0  0  0  0  0  0  0  0
    2.6306   -3.1982   27.8866 C   0  0  0  0  0  0  0  0  0  0  0  0
    2.2206   -3.2818   29.2065 C   0  0  0  0  0  0  0  0  0  0  0  0
   -2.3135   -2.2127   28.5441 H   0  0  0  0  0  0  0  0  0  0  0  0
   -1.4712   -3.2549   29.6010 H   0  0  0  0  0  0  0  0  0  0  0  0
   -0.5909   -2.7769   28.2001 H   0  0  0  0  0  0  0  0  0  0  0  0
   -1.8705   -0.4070   28.1295 H   0  0  0  0  0  0  0  0  0  0  0  0
   -0.1538   -0.9383   27.7298 H   0  0  0  0  0  0  0  0  0  0  0  0
    1.1906    0.4172   30.1475 H   0  0  0  0  0  0  0  0  0  0  0  0
    1.9593    2.7528   30.3866 H   0  0  0  0  0  0  0  0  0  0  0  0
    0.8819    4.5612   29.0751 H   0  0  0  0  0  0  0  0  0  0  0  0
   -0.9568    4.0323   27.5049 H   0  0  0  0  0  0  0  0  0  0  0  0
   -1.7389    1.7148   27.2459 H   0  0  0  0  0  0  0  0  0  0  0  0
   -0.0660   -2.3927   31.4157 H   0  0  0  0  0  0  0  0  0  0  0  0
   -0.4677   -1.4939   33.7857 H   0  0  0  0  0  0  0  0  0  0  0  0
   -2.0848   -2.1538   33.5524 H   0  0  0  0  0  0  0  0  0  0  0  0
   -0.7393   -2.7079   35.8164 H   0  0  0  0  0  0  0  0  0  0  0  0
    0.0637   -4.6211   37.1018 H   0  0  0  0  0  0  0  0  0  0  0  0
    0.2450   -7.6338   32.6894 H   0  0  0  0  0  0  0  0  0  0  0  0
    1.8262   -3.7517   31.7279 H   0  0  0  0  0  0  0  0  0  0  0  0
    2.1553   -5.4706   31.6446 H   0  0  0  0  0  0  0  0  0  0  0  0
    1.8045   -6.6459   29.2582 H   0  0  0  0  0  0  0  0  0  0  0  0
    2.6602   -6.3148   26.9450 H   0  0  0  0  0  0  0  0  0  0  0  0
    2.8709   -2.2372   27.4382 H   0  0  0  0  0  0  0  0  0  0  0  0
    2.1485   -2.3736   29.7979 H   0  0  0  0  0  0  0  0  0  0  0  0
  1  2  1  0
  2  3  1  0
  3  4  1  0
  4  5  2  0
  5  6  1  0
  6  7  2  0
  7  8  1  0
  8  9  2  0
  2 10  1  0
 10 11  2  0
 10 12  1  0
 12 13  1  0
 13 14  1  0
 14 15  1  0
 15 16  2  0
 16 17  1  0
 17 18  2  0
 18 19  1  0
 19 20  2  0
 20 21  1  0
 21 22  1  0
 22 23  1  0
 23 24  1  0
 24 25  1  0
 25 26  2  0
 26 27  1  0
 27 28  2  0
 28 29  1  0
 29 30  2  0
  9  4  1  0
 22 14  2  0
 30 25  1  0
 21 17  1  0
  1 31  1  0
  1 32  1  0
  1 33  1  0
  3 34  1  0
  3 35  1  0
  5 36  1  0
  6 37  1  0
  7 38  1  0
  8 39  1  0
  9 40  1  0
 12 41  1  0
 13 42  1  0
 13 43  1  0
 15 44  1  0
 16 45  1  0
 20 46  1  0
 24 47  1  0
 24 48  1  0
 26 49  1  0
 27 50  1  0
 29 51  1  0
 30 52  1  0
M  END
>  <Energy>  (907) 
66.735811474022242

>  <compound_id>  (907) 
2371

>  <target_id>  (907) 
1

>  <reference_id>  (907) 
40

>  <inspiration_ids>  (907) 
[131, 40]

>  <energy_score>  (907) 
49.892072117257044

>  <distance_score>  (907) 
2.2215742437332087

>  <path>  (907) 
/opt/xchem-fragalysis-2/maxwin/BulkDock/SCRATCH/505734/C2371-P40/C2371-P40.minimised.mol

>  <scratch_subdir>  (907) 
/opt/xchem-fragalysis-2/maxwin/BulkDock/SCRATCH/505734/C2371-P40

>  <fragmenstein_runtime>  (907) 
19.225837469100952

>  <fragmenstein_outcome>  (907) 
too moved

>  <fragmenstein_mode>  (907) 
expansion

>  <fragmenstein_error>  (907) 


$$$$
C3790-P131
     RDKit          3D

 62 65  0  0  0  0  0  0  0  0999 V2000
    5.9282   -3.8978   32.8411 C   0  0  0  0  0  0  0  0  0  0  0  0
    4.5132   -3.6369   33.1139 N   0  0  0  0  0  0  0  0  0  0  0  0
    4.4112   -2.3694   33.8498 N   0  0  0  0  0  0  0  0  0  0  0  0
    3.0761   -2.1627   34.4277 C   0  0  0  0  0  0  0  0  0  0  0  0
    1.9509   -1.9995   33.3877 C   0  0  0  0  0  0  0  0  0  0  0  0
    1.2168   -3.3120   33.0739 C   0  0  0  0  0  0  0  0  0  0  0  0
    0.0522   -3.1065   32.0465 C   0  0  0  0  0  0  0  0  0  0  0  0
   -1.0761   -3.2746   32.3462 O   0  0  0  0  0  0  0  0  0  0  0  0
    0.6701   -2.7344   30.7046 N   0  0  0  0  0  0  0  0  0  0  0  0
    1.0121   -3.9627   29.9027 C   0  0  0  0  0  0  0  0  0  0  0  0
    0.0084   -2.3645   29.3650 C   0  0  0  0  0  0  0  0  0  0  0  0
   -0.3492   -0.8718   29.2797 C   0  0  0  0  0  0  0  0  0  0  0  0
    0.3520    0.1065   29.9939 C   0  0  0  0  0  0  0  0  0  0  0  0
    0.1582    1.4631   29.7200 C   0  0  0  0  0  0  0  0  0  0  0  0
   -0.7377    1.8610   28.7287 C   0  0  0  0  0  0  0  0  0  0  0  0
   -1.4621    0.9047   28.0266 C   0  0  0  0  0  0  0  0  0  0  0  0
   -1.2705   -0.4517   28.2995 C   0  0  0  0  0  0  0  0  0  0  0  0
    0.6761   -3.9629   34.3971 C   0  0  0  0  0  0  0  0  0  0  0  0
    0.6340   -5.5197   34.3359 C   0  0  0  0  0  0  0  0  0  0  0  0
    0.4282   -6.0145   32.9698 N   0  0  0  0  0  0  0  0  0  0  0  0
   -0.7329   -6.3320   35.2457 S   0  0  0  0  0  0  0  0  0  0  0  0
   -0.6759   -5.5521   36.7877 C   0  0  0  0  0  0  0  0  0  0  0  0
    0.0391   -6.0329   37.7528 N   0  0  0  0  0  0  0  0  0  0  0  0
   -0.0534   -5.2831   38.9355 C   0  0  0  0  0  0  0  0  0  0  0  0
    0.6208   -5.6127   40.1312 C   0  0  0  0  0  0  0  0  0  0  0  0
    0.3425   -4.6912   41.1227 C   0  0  0  0  0  0  0  0  0  0  0  0
   -0.7250   -3.4529   40.5797 S   0  0  0  0  0  0  0  0  0  0  0  0
   -0.8136   -4.1495   39.0400 C   0  0  0  0  0  0  0  0  0  0  0  0
   -1.5883   -3.6453   37.9465 C   0  0  0  0  0  0  0  0  0  0  0  0
   -2.2947   -2.6409   37.9363 O   0  0  0  0  0  0  0  0  0  0  0  0
   -1.4646   -4.4336   36.8251 N   0  0  0  0  0  0  0  0  0  0  0  0
    1.4750   -3.4709   35.6282 C   0  0  0  0  0  0  0  0  0  0  0  0
    2.8869   -3.2533   35.3603 N   0  0  0  0  0  0  0  0  0  0  0  0
    6.4937   -4.0250   33.7704 H   0  0  0  0  0  0  0  0  0  0  0  0
    6.3797   -3.0920   32.2523 H   0  0  0  0  0  0  0  0  0  0  0  0
    6.0206   -4.8265   32.2695 H   0  0  0  0  0  0  0  0  0  0  0  0
    4.0442   -3.5365   32.2075 H   0  0  0  0  0  0  0  0  0  0  0  0
    5.0414   -2.3745   34.6595 H   0  0  0  0  0  0  0  0  0  0  0  0
    3.1285   -1.2234   34.9921 H   0  0  0  0  0  0  0  0  0  0  0  0
    1.2156   -1.2777   33.7711 H   0  0  0  0  0  0  0  0  0  0  0  0
    2.3472   -1.5475   32.4702 H   0  0  0  0  0  0  0  0  0  0  0  0
    1.9371   -3.9973   32.6198 H   0  0  0  0  0  0  0  0  0  0  0  0
    1.7811   -3.7994   29.1324 H   0  0  0  0  0  0  0  0  0  0  0  0
    1.5282   -4.6353   30.6005 H   0  0  0  0  0  0  0  0  0  0  0  0
    0.1510   -4.5722   29.5861 H   0  0  0  0  0  0  0  0  0  0  0  0
    0.6372   -2.4687   28.4643 H   0  0  0  0  0  0  0  0  0  0  0  0
   -0.9545   -2.8944   29.2829 H   0  0  0  0  0  0  0  0  0  0  0  0
    1.0952   -0.1762   30.7343 H   0  0  0  0  0  0  0  0  0  0  0  0
    0.7214    2.2143   30.2679 H   0  0  0  0  0  0  0  0  0  0  0  0
   -0.8862    2.9176   28.5154 H   0  0  0  0  0  0  0  0  0  0  0  0
   -2.1690    1.2104   27.2587 H   0  0  0  0  0  0  0  0  0  0  0  0
   -1.8119   -1.1857   27.7022 H   0  0  0  0  0  0  0  0  0  0  0  0
   -0.3484   -3.6002   34.5415 H   0  0  0  0  0  0  0  0  0  0  0  0
    1.5794   -5.9335   34.7029 H   0  0  0  0  0  0  0  0  0  0  0  0
   -0.4883   -5.6667   32.6759 H   0  0  0  0  0  0  0  0  0  0  0  0
    0.2995   -7.0248   33.0468 H   0  0  0  0  0  0  0  0  0  0  0  0
    1.2678   -6.4699   40.2649 H   0  0  0  0  0  0  0  0  0  0  0  0
    0.7087   -4.6795   42.1401 H   0  0  0  0  0  0  0  0  0  0  0  0
   -1.9920   -4.1718   35.9995 H   0  0  0  0  0  0  0  0  0  0  0  0
    1.4245   -4.1835   36.4501 H   0  0  0  0  0  0  0  0  0  0  0  0
    1.0281   -2.5447   36.0133 H   0  0  0  0  0  0  0  0  0  0  0  0
    3.3024   -4.0634   34.8933 H   0  0  0  0  0  0  0  0  0  0  0  0
  1  2  1  0
  2  3  1  0
  3  4  1  0
  4  5  1  0
  5  6  1  0
  6  7  1  0
  7  8  2  0
  7  9  1  0
  9 10  1  0
  9 11  1  0
 11 12  1  0
 12 13  2  0
 13 14  1  0
 14 15  2  0
 15 16  1  0
 16 17  2  0
  6 18  1  0
 18 19  1  0
 19 20  1  0
 19 21  1  0
 21 22  1  0
 22 23  2  0
 23 24  1  0
 24 25  1  0
 25 26  2  0
 26 27  1  0
 27 28  1  0
 28 29  1  0
 29 30  2  0
 29 31  1  0
 18 32  1  0
 32 33  1  0
 33  4  1  0
 17 12  1  0
 31 22  1  0
 28 24  2  0
  1 34  1  0
  1 35  1  0
  1 36  1  0
  2 37  1  0
  3 38  1  0
  4 39  1  0
  5 40  1  0
  5 41  1  0
  6 42  1  0
 10 43  1  0
 10 44  1  0
 10 45  1  0
 11 46  1  0
 11 47  1  0
 13 48  1  0
 14 49  1  0
 15 50  1  0
 16 51  1  0
 17 52  1  0
 18 53  1  0
 19 54  1  0
 20 55  1  0
 20 56  1  0
 25 57  1  0
 26 58  1  0
 31 59  1  0
 32 60  1  0
 32 61  1  0
 33 62  1  0
M  END
>  <Energy>  (908) 
-11.655274868580541

>  <compound_id>  (908) 
3790

>  <target_id>  (908) 
1

>  <reference_id>  (908) 
131

>  <inspiration_ids>  (908) 
[131, 41]

>  <energy_score>  (908) 
13.991108171087866

>  <distance_score>  (908) 
1.569434743922798

>  <path>  (908) 
/opt/xchem-fragalysis-2/maxwin/BulkDock/SCRATCH/505734/C3790-P131/C3790-P131.minimised.mol

>  <scratch_subdir>  (908) 
/opt/xchem-fragalysis-2/maxwin/BulkDock/SCRATCH/505734/C3790-P131

>  <fragmenstein_runtime>  (908) 
9.098899126052856

>  <fragmenstein_outcome>  (908) 
too moved

>  <fragmenstein_mode>  (908) 
expansion

>  <fragmenstein_error>  (908) 


$$$$
C3790-P41
     RDKit          3D

 62 65  0  0  0  0  0  0  0  0999 V2000
    5.8043   -3.7930   33.9040 C   0  0  0  0  0  0  0  0  0  0  0  0
    4.4227   -3.3511   33.7118 N   0  0  0  0  0  0  0  0  0  0  0  0
    4.1761   -2.2125   34.5821 N   0  0  0  0  0  0  0  0  0  0  0  0
    2.7651   -1.8302   34.6927 C   0  0  0  0  0  0  0  0  0  0  0  0
    1.8711   -1.9288   33.4520 C   0  0  0  0  0  0  0  0  0  0  0  0
    1.3157   -3.3277   33.1289 C   0  0  0  0  0  0  0  0  0  0  0  0
    0.1325   -3.1789   32.1110 C   0  0  0  0  0  0  0  0  0  0  0  0
   -0.9856   -3.3778   32.4318 O   0  0  0  0  0  0  0  0  0  0  0  0
    0.7172   -2.8056   30.7534 N   0  0  0  0  0  0  0  0  0  0  0  0
    1.0834   -4.0314   29.9632 C   0  0  0  0  0  0  0  0  0  0  0  0
    0.0208   -2.4734   29.4168 C   0  0  0  0  0  0  0  0  0  0  0  0
   -0.3205   -0.9796   29.2797 C   0  0  0  0  0  0  0  0  0  0  0  0
    0.3836    0.0155   29.9680 C   0  0  0  0  0  0  0  0  0  0  0  0
    0.2174    1.3632   29.6366 C   0  0  0  0  0  0  0  0  0  0  0  0
   -0.6549    1.7349   28.6140 C   0  0  0  0  0  0  0  0  0  0  0  0
   -1.3922    0.7636   27.9450 C   0  0  0  0  0  0  0  0  0  0  0  0
   -1.2249   -0.5842   28.2721 C   0  0  0  0  0  0  0  0  0  0  0  0
    0.8306   -4.0569   34.4259 C   0  0  0  0  0  0  0  0  0  0  0  0
    0.5863   -5.5929   34.2500 C   0  0  0  0  0  0  0  0  0  0  0  0
    0.4113   -6.0111   32.8594 N   0  0  0  0  0  0  0  0  0  0  0  0
   -0.9116   -6.2502   35.0655 S   0  0  0  0  0  0  0  0  0  0  0  0
   -0.7098   -5.6793   36.6850 C   0  0  0  0  0  0  0  0  0  0  0  0
   -0.0315   -6.3602   37.5509 N   0  0  0  0  0  0  0  0  0  0  0  0
   -0.0050   -5.7623   38.8214 C   0  0  0  0  0  0  0  0  0  0  0  0
    0.6481   -6.3207   39.9414 C   0  0  0  0  0  0  0  0  0  0  0  0
    0.5015   -5.5099   41.0509 C   0  0  0  0  0  0  0  0  0  0  0  0
   -0.4192   -4.0956   40.7069 S   0  0  0  0  0  0  0  0  0  0  0  0
   -0.6214   -4.5709   39.0957 C   0  0  0  0  0  0  0  0  0  0  0  0
   -1.3505   -3.8407   38.1030 C   0  0  0  0  0  0  0  0  0  0  0  0
   -1.9186   -2.7612   38.2384 O   0  0  0  0  0  0  0  0  0  0  0  0
   -1.3589   -4.4928   36.8920 N   0  0  0  0  0  0  0  0  0  0  0  0
    1.8450   -3.8741   35.5756 C   0  0  0  0  0  0  0  0  0  0  0  0
    2.1889   -2.4866   35.8516 N   0  0  0  0  0  0  0  0  0  0  0  0
    5.9717   -4.1360   34.9306 H   0  0  0  0  0  0  0  0  0  0  0  0
    6.5186   -2.9964   33.6699 H   0  0  0  0  0  0  0  0  0  0  0  0
    6.0094   -4.6370   33.2380 H   0  0  0  0  0  0  0  0  0  0  0  0
    4.3258   -3.0630   32.7330 H   0  0  0  0  0  0  0  0  0  0  0  0
    4.4543   -2.4097   35.5493 H   0  0  0  0  0  0  0  0  0  0  0  0
    2.8069   -0.7626   34.9444 H   0  0  0  0  0  0  0  0  0  0  0  0
    1.0180   -1.2500   33.6009 H   0  0  0  0  0  0  0  0  0  0  0  0
    2.4024   -1.5272   32.5792 H   0  0  0  0  0  0  0  0  0  0  0  0
    2.1035   -3.9278   32.6642 H   0  0  0  0  0  0  0  0  0  0  0  0
    1.8373   -3.8558   29.1808 H   0  0  0  0  0  0  0  0  0  0  0  0
    1.6311   -4.6783   30.6617 H   0  0  0  0  0  0  0  0  0  0  0  0
    0.2349   -4.6685   29.6687 H   0  0  0  0  0  0  0  0  0  0  0  0
   -0.9476   -2.9987   29.3885 H   0  0  0  0  0  0  0  0  0  0  0  0
    0.6103   -2.6209   28.4950 H   0  0  0  0  0  0  0  0  0  0  0  0
    1.1122   -0.2496   30.7291 H   0  0  0  0  0  0  0  0  0  0  0  0
    0.7858    2.1264   30.1620 H   0  0  0  0  0  0  0  0  0  0  0  0
   -0.7800    2.7843   28.3552 H   0  0  0  0  0  0  0  0  0  0  0  0
   -2.0851    1.0497   27.1572 H   0  0  0  0  0  0  0  0  0  0  0  0
   -1.7664   -1.3339   27.6936 H   0  0  0  0  0  0  0  0  0  0  0  0
   -0.1046   -3.5670   34.7248 H   0  0  0  0  0  0  0  0  0  0  0  0
    1.4399   -6.1554   34.6438 H   0  0  0  0  0  0  0  0  0  0  0  0
   -0.4629   -5.5810   32.5428 H   0  0  0  0  0  0  0  0  0  0  0  0
    0.2049   -7.0107   32.8723 H   0  0  0  0  0  0  0  0  0  0  0  0
    1.1905   -7.2573   39.9460 H   0  0  0  0  0  0  0  0  0  0  0  0
    0.8856   -5.6736   42.0486 H   0  0  0  0  0  0  0  0  0  0  0  0
   -1.8578   -4.0589   36.1255 H   0  0  0  0  0  0  0  0  0  0  0  0
    2.7517   -4.4599   35.3865 H   0  0  0  0  0  0  0  0  0  0  0  0
    1.4472   -4.2821   36.5053 H   0  0  0  0  0  0  0  0  0  0  0  0
    1.3450   -1.9787   36.1163 H   0  0  0  0  0  0  0  0  0  0  0  0
  1  2  1  0
  2  3  1  0
  3  4  1  0
  4  5  1  0
  5  6  1  0
  6  7  1  0
  7  8  2  0
  7  9  1  0
  9 10  1  0
  9 11  1  0
 11 12  1  0
 12 13  2  0
 13 14  1  0
 14 15  2  0
 15 16  1  0
 16 17  2  0
  6 18  1  0
 18 19  1  0
 19 20  1  0
 19 21  1  0
 21 22  1  0
 22 23  2  0
 23 24  1  0
 24 25  1  0
 25 26  2  0
 26 27  1  0
 27 28  1  0
 28 29  1  0
 29 30  2  0
 29 31  1  0
 18 32  1  0
 32 33  1  0
 33  4  1  0
 17 12  1  0
 31 22  1  0
 28 24  2  0
  1 34  1  0
  1 35  1  0
  1 36  1  0
  2 37  1  0
  3 38  1  0
  4 39  1  0
  5 40  1  0
  5 41  1  0
  6 42  1  0
 10 43  1  0
 10 44  1  0
 10 45  1  0
 11 46  1  0
 11 47  1  0
 13 48  1  0
 14 49  1  0
 15 50  1  0
 16 51  1  0
 17 52  1  0
 18 53  1  0
 19 54  1  0
 20 55  1  0
 20 56  1  0
 25 57  1  0
 26 58  1  0
 31 59  1  0
 32 60  1  0
 32 61  1  0
 33 62  1  0
M  END
>  <Energy>  (909) 
-11.709525173727124

>  <compound_id>  (909) 
3790

>  <target_id>  (909) 
1

>  <reference_id>  (909) 
41

>  <inspiration_ids>  (909) 
[131, 41]

>  <energy_score>  (909) 
13.936857865943054

>  <distance_score>  (909) 
1.5843283690192818

>  <path>  (909) 
/opt/xchem-fragalysis-2/maxwin/BulkDock/SCRATCH/505734/C3790-P41/C3790-P41.minimised.mol

>  <scratch_subdir>  (909) 
/opt/xchem-fragalysis-2/maxwin/BulkDock/SCRATCH/505734/C3790-P41

>  <fragmenstein_runtime>  (909) 
8.764806032180786

>  <fragmenstein_outcome>  (909) 
too moved

>  <fragmenstein_mode>  (909) 
expansion

>  <fragmenstein_error>  (909) 


$$$$
C2468-P131
     RDKit          3D

 49 53  0  0  0  0  0  0  0  0999 V2000
    5.4985   -0.6547   28.9816 C   0  0  0  0  0  0  0  0  0  0  0  0
    3.9965   -0.5597   29.0389 N   0  0  0  0  0  0  0  0  0  0  0  0
    4.2595    0.7300   28.4144 C   0  0  0  0  0  0  0  0  0  0  0  0
    3.0036    1.3685   29.1040 C   0  0  0  0  0  0  0  0  0  0  0  0
    1.3888    0.6638   28.8838 C   0  0  0  0  0  0  0  0  0  0  0  0
   -0.0314    1.0761   30.2808 C   0  0  0  0  0  0  0  0  0  0  0  0
    0.4301    2.0708   31.6489 C   0  0  0  0  0  0  0  0  0  0  0  0
    2.0450    2.6160   31.7306 C   0  0  0  0  0  0  0  0  0  0  0  0
    3.2622    2.2784   30.5382 C   0  0  0  0  0  0  0  0  0  0  0  0
    3.4094   -1.7462   28.5081 C   0  0  0  0  0  0  0  0  0  0  0  0
    3.0766   -2.0084   27.4142 O   0  0  0  0  0  0  0  0  0  0  0  0
    3.2546   -2.4708   29.7263 N   0  0  0  0  0  0  0  0  0  0  0  0
    2.6051   -3.6091   29.9923 C   0  0  0  0  0  0  0  0  0  0  0  0
    2.7292   -4.7839   29.1692 C   0  0  0  0  0  0  0  0  0  0  0  0
    1.9205   -5.8373   29.3681 C   0  0  0  0  0  0  0  0  0  0  0  0
    0.9085   -5.7855   30.3673 C   0  0  0  0  0  0  0  0  0  0  0  0
    0.0038   -6.6567   30.7579 N   0  0  0  0  0  0  0  0  0  0  0  0
   -0.7427   -6.0689   31.7515 N   0  0  0  0  0  0  0  0  0  0  0  0
   -0.2750   -4.8551   31.9436 C   0  0  0  0  0  0  0  0  0  0  0  0
    0.7655   -4.6039   31.0864 N   0  0  0  0  0  0  0  0  0  0  0  0
    1.5742   -3.4763   30.8714 C   0  0  0  0  0  0  0  0  0  0  0  0
    1.2184   -1.9426   31.6863 S   0  0  0  0  0  0  0  0  0  0  0  0
    1.0236   -0.6412   30.4356 C   0  0  0  0  0  0  0  0  0  0  0  0
    1.7134    0.7841   30.6600 N   0  0  0  0  0  0  0  0  0  0  0  0
    1.1060    2.3467   29.5760 C   0  0  0  0  0  0  0  0  0  0  0  0
    1.4392    3.5471   29.5456 O   0  0  0  0  0  0  0  0  0  0  0  0
   -0.2443    1.8653   28.3573 C   0  0  0  0  0  0  0  0  0  0  0  0
   -1.0897    2.8662   27.3029 S   0  0  0  0  0  0  0  0  0  0  0  0
   -2.0494    1.5340   26.7433 C   0  0  0  0  0  0  0  0  0  0  0  0
   -1.7633    0.2885   27.2906 C   0  0  0  0  0  0  0  0  0  0  0  0
   -0.7600    0.3590   28.2725 C   0  0  0  0  0  0  0  0  0  0  0  0
   -0.1901   -0.8743   29.2214 N   0  0  0  0  0  0  0  0  0  0  0  0
    6.0025    0.0091   29.7014 H   0  0  0  0  0  0  0  0  0  0  0  0
    5.9199   -0.6281   27.9623 H   0  0  0  0  0  0  0  0  0  0  0  0
    5.7606   -1.6620   29.3393 H   0  0  0  0  0  0  0  0  0  0  0  0
    5.0758    1.4110   28.7028 H   0  0  0  0  0  0  0  0  0  0  0  0
    4.0780    0.7117   27.3334 H   0  0  0  0  0  0  0  0  0  0  0  0
    1.3583   -0.0118   28.0083 H   0  0  0  0  0  0  0  0  0  0  0  0
   -1.0681    0.7068   30.3837 H   0  0  0  0  0  0  0  0  0  0  0  0
   -0.2534    2.2663   32.4637 H   0  0  0  0  0  0  0  0  0  0  0  0
    2.3488    3.1935   32.6024 H   0  0  0  0  0  0  0  0  0  0  0  0
    4.2722    2.6199   30.7587 H   0  0  0  0  0  0  0  0  0  0  0  0
    3.5903   -1.8991   30.4968 H   0  0  0  0  0  0  0  0  0  0  0  0
    3.4789   -4.7965   28.3837 H   0  0  0  0  0  0  0  0  0  0  0  0
    2.0117   -6.7264   28.7569 H   0  0  0  0  0  0  0  0  0  0  0  0
   -0.6402   -4.1461   32.6736 H   0  0  0  0  0  0  0  0  0  0  0  0
   -2.8016    1.7484   25.9955 H   0  0  0  0  0  0  0  0  0  0  0  0
   -2.2655   -0.6216   26.9906 H   0  0  0  0  0  0  0  0  0  0  0  0
   -0.5564   -1.8102   29.0842 H   0  0  0  0  0  0  0  0  0  0  0  0
  1  2  1  0
  2  3  1  0
  3  4  1  0
  4  5  2  0
  5  6  1  0
  6  7  2  0
  7  8  1  0
  8  9  2  0
  2 10  1  0
 10 11  2  0
 10 12  1  0
 12 13  1  0
 13 14  1  0
 14 15  2  0
 15 16  1  0
 16 17  2  0
 17 18  1  0
 18 19  2  0
 19 20  1  0
 20 21  1  0
 21 22  1  0
 22 23  1  0
 23 24  2  0
 24 25  1  0
 25 26  2  0
 25 27  1  0
 27 28  1  0
 28 29  1  0
 29 30  2  0
 30 31  1  0
 31 32  1  0
  9  4  1  0
 21 13  2  0
 32 23  1  0
 20 16  1  0
 31 27  2  0
  1 33  1  0
  1 34  1  0
  1 35  1  0
  3 36  1  0
  3 37  1  0
  5 38  1  0
  6 39  1  0
  7 40  1  0
  8 41  1  0
  9 42  1  0
 12 43  1  0
 14 44  1  0
 15 45  1  0
 19 46  1  0
 29 47  1  0
 30 48  1  0
 32 49  1  0
M  END
>  <Energy>  (910) 
1365.5357654644956

>  <compound_id>  (910) 
2468

>  <target_id>  (910) 
1

>  <reference_id>  (910) 
131

>  <inspiration_ids>  (910) 
[131, 44]

>  <energy_score>  (910) 
1351.6726882594933

>  <distance_score>  (910) 
4.210038233136886

>  <path>  (910) 
/opt/xchem-fragalysis-2/maxwin/BulkDock/SCRATCH/505734/C2468-P131/C2468-P131.minimised.mol

>  <scratch_subdir>  (910) 
/opt/xchem-fragalysis-2/maxwin/BulkDock/SCRATCH/505734/C2468-P131

>  <fragmenstein_runtime>  (910) 
13.743908643722534

>  <fragmenstein_outcome>  (910) 
too moved

>  <fragmenstein_mode>  (910) 
expansion

>  <fragmenstein_error>  (910) 


$$$$
C2468-P44
     RDKit          3D

 49 53  0  0  0  0  0  0  0  0999 V2000
   -0.1144   -3.2912   28.4498 C   0  0  0  0  0  0  0  0  0  0  0  0
   -0.3632   -2.4085   29.6074 N   0  0  0  0  0  0  0  0  0  0  0  0
   -1.0120   -1.5826   28.5735 C   0  0  0  0  0  0  0  0  0  0  0  0
   -0.3927   -0.2918   29.2262 C   0  0  0  0  0  0  0  0  0  0  0  0
   -0.9494    0.0290   30.8332 C   0  0  0  0  0  0  0  0  0  0  0  0
    0.2060    0.6599   31.9846 C   0  0  0  0  0  0  0  0  0  0  0  0
    2.0955    1.0449   31.3415 C   0  0  0  0  0  0  0  0  0  0  0  0
    2.4775    0.7099   29.6620 C   0  0  0  0  0  0  0  0  0  0  0  0
    1.2427    0.0372   28.6830 C   0  0  0  0  0  0  0  0  0  0  0  0
   -0.9179   -3.1540   30.6789 C   0  0  0  0  0  0  0  0  0  0  0  0
   -2.0387   -3.3758   30.9605 O   0  0  0  0  0  0  0  0  0  0  0  0
    0.2875   -3.4640   31.3565 N   0  0  0  0  0  0  0  0  0  0  0  0
    0.5035   -4.0157   32.5499 C   0  0  0  0  0  0  0  0  0  0  0  0
   -0.3289   -5.0921   33.0408 C   0  0  0  0  0  0  0  0  0  0  0  0
    0.0457   -5.8210   34.1033 C   0  0  0  0  0  0  0  0  0  0  0  0
    1.2693   -5.5079   34.7395 C   0  0  0  0  0  0  0  0  0  0  0  0
    1.9391   -6.1212   35.6870 N   0  0  0  0  0  0  0  0  0  0  0  0
    3.0747   -5.3926   35.9312 N   0  0  0  0  0  0  0  0  0  0  0  0
    3.0736   -4.3548   35.1248 C   0  0  0  0  0  0  0  0  0  0  0  0
    1.9704   -4.3759   34.3164 N   0  0  0  0  0  0  0  0  0  0  0  0
    1.5850   -3.5732   33.2271 C   0  0  0  0  0  0  0  0  0  0  0  0
    2.6135   -2.2437   32.6474 S   0  0  0  0  0  0  0  0  0  0  0  0
    1.6847   -0.7309   32.2529 C   0  0  0  0  0  0  0  0  0  0  0  0
    1.1118   -0.3753   30.8004 N   0  0  0  0  0  0  0  0  0  0  0  0
    0.5813    1.5049   30.3879 C   0  0  0  0  0  0  0  0  0  0  0  0
    0.1336    2.0762   29.3756 O   0  0  0  0  0  0  0  0  0  0  0  0
    0.8553    2.6454   31.8581 C   0  0  0  0  0  0  0  0  0  0  0  0
    0.6857    4.3154   31.9108 S   0  0  0  0  0  0  0  0  0  0  0  0
    1.2286    4.3664   33.5603 C   0  0  0  0  0  0  0  0  0  0  0  0
    1.5998    3.1553   34.1327 C   0  0  0  0  0  0  0  0  0  0  0  0
    1.4344    2.0796   33.2323 C   0  0  0  0  0  0  0  0  0  0  0  0
    1.8144    0.4884   33.4886 N   0  0  0  0  0  0  0  0  0  0  0  0
    0.3513   -4.2011   28.8572 H   0  0  0  0  0  0  0  0  0  0  0  0
    0.6818   -2.8975   27.8053 H   0  0  0  0  0  0  0  0  0  0  0  0
   -0.9964   -3.6719   27.9465 H   0  0  0  0  0  0  0  0  0  0  0  0
   -2.0987   -1.5553   28.6963 H   0  0  0  0  0  0  0  0  0  0  0  0
   -0.7009   -1.4909   27.5245 H   0  0  0  0  0  0  0  0  0  0  0  0
   -1.9048   -0.3601   31.1722 H   0  0  0  0  0  0  0  0  0  0  0  0
   -0.2399    0.7079   32.9951 H   0  0  0  0  0  0  0  0  0  0  0  0
    2.9918    1.3832   31.8922 H   0  0  0  0  0  0  0  0  0  0  0  0
    3.4846    0.8425   29.2836 H   0  0  0  0  0  0  0  0  0  0  0  0
    1.5181   -0.3204   27.6915 H   0  0  0  0  0  0  0  0  0  0  0  0
    1.0660   -3.0407   30.8573 H   0  0  0  0  0  0  0  0  0  0  0  0
   -1.2435   -5.3324   32.5183 H   0  0  0  0  0  0  0  0  0  0  0  0
   -0.5533   -6.6466   34.4748 H   0  0  0  0  0  0  0  0  0  0  0  0
    3.8414   -3.5972   35.0739 H   0  0  0  0  0  0  0  0  0  0  0  0
    1.2632    5.3391   34.0326 H   0  0  0  0  0  0  0  0  0  0  0  0
    1.9761    3.0752   35.1440 H   0  0  0  0  0  0  0  0  0  0  0  0
    2.3720    0.2336   34.2962 H   0  0  0  0  0  0  0  0  0  0  0  0
  1  2  1  0
  2  3  1  0
  3  4  1  0
  4  5  2  0
  5  6  1  0
  6  7  2  0
  7  8  1  0
  8  9  2  0
  2 10  1  0
 10 11  2  0
 10 12  1  0
 12 13  1  0
 13 14  1  0
 14 15  2  0
 15 16  1  0
 16 17  2  0
 17 18  1  0
 18 19  2  0
 19 20  1  0
 20 21  1  0
 21 22  1  0
 22 23  1  0
 23 24  2  0
 24 25  1  0
 25 26  2  0
 25 27  1  0
 27 28  1  0
 28 29  1  0
 29 30  2  0
 30 31  1  0
 31 32  1  0
  9  4  1  0
 21 13  2  0
 32 23  1  0
 20 16  1  0
 31 27  2  0
  1 33  1  0
  1 34  1  0
  1 35  1  0
  3 36  1  0
  3 37  1  0
  5 38  1  0
  6 39  1  0
  7 40  1  0
  8 41  1  0
  9 42  1  0
 12 43  1  0
 14 44  1  0
 15 45  1  0
 19 46  1  0
 29 47  1  0
 30 48  1  0
 32 49  1  0
M  END
>  <Energy>  (911) 
1375.5554143367767

>  <compound_id>  (911) 
2468

>  <target_id>  (911) 
1

>  <reference_id>  (911) 
44

>  <inspiration_ids>  (911) 
[131, 44]

>  <energy_score>  (911) 
1361.6923371317778

>  <distance_score>  (911) 
3.9946522429100693

>  <path>  (911) 
/opt/xchem-fragalysis-2/maxwin/BulkDock/SCRATCH/505734/C2468-P44/C2468-P44.minimised.mol

>  <scratch_subdir>  (911) 
/opt/xchem-fragalysis-2/maxwin/BulkDock/SCRATCH/505734/C2468-P44

>  <fragmenstein_runtime>  (911) 
16.65083932876587

>  <fragmenstein_outcome>  (911) 
too moved

>  <fragmenstein_mode>  (911) 
expansion

>  <fragmenstein_error>  (911) 


$$$$
C3768-P131
     RDKit          3D

 72 76  0  0  0  0  0  0  0  0999 V2000
   -0.2439   -3.3581   30.5786 O   0  0  0  0  0  0  0  0  0  0  0  0
    0.4080   -2.9250   31.4544 C   0  0  0  0  0  0  0  0  0  0  0  0
    1.2121   -3.6061   32.4582 N   0  0  0  0  0  0  0  0  0  0  0  0
    1.3769   -5.0152   32.7419 C   0  0  0  0  0  0  0  0  0  0  0  0
    0.0485   -5.7214   33.0591 C   0  0  0  0  0  0  0  0  0  0  0  0
   -0.3909   -6.6944   32.0825 N   0  0  0  0  0  0  0  0  0  0  0  0
   -1.1026   -7.8263   32.3470 C   0  0  0  0  0  0  0  0  0  0  0  0
   -1.3351   -8.4686   31.2243 N   0  0  0  0  0  0  0  0  0  0  0  0
   -0.7769   -7.7411   30.2043 N   0  0  0  0  0  0  0  0  0  0  0  0
   -0.2341   -6.6673   30.7330 C   0  0  0  0  0  0  0  0  0  0  0  0
    0.5732   -1.5468   31.9179 N   0  0  0  0  0  0  0  0  0  0  0  0
    1.7560   -0.8806   31.1913 C   0  0  0  0  0  0  0  0  0  0  0  0
    2.0894   -1.4376   29.8760 N   0  0  0  0  0  0  0  0  0  0  0  0
    2.6260   -0.4648   28.8906 C   0  0  0  0  0  0  0  0  0  0  0  0
    4.0984    0.0422   28.9377 C   0  0  0  0  0  0  0  0  0  0  0  0
    4.5773    0.8323   30.5387 S   0  0  0  0  0  0  0  0  0  0  0  0
    5.2344   -1.3332   28.6984 Cl  0  0  0  0  0  0  0  0  0  0  0  0
    4.2800    1.0967   27.7627 C   0  0  0  0  0  0  0  0  0  0  0  0
    4.7375    0.7345   26.7164 O   0  0  0  0  0  0  0  0  0  0  0  0
    3.7405    2.3809   28.1615 N   0  0  0  0  0  0  0  0  0  0  0  0
    3.6739    3.6582   27.4468 C   0  0  0  0  0  0  0  0  0  0  0  0
    2.5864    3.6296   26.3373 C   0  0  0  0  0  0  0  0  0  0  0  0
    1.5187    4.3960   26.3129 N   0  0  0  0  0  0  0  0  0  0  0  0
    0.9229    4.0744   25.1215 C   0  0  0  0  0  0  0  0  0  0  0  0
   -0.3735    4.7602   24.5882 C   0  0  0  0  0  0  0  0  0  0  0  0
   -0.9760    4.4418   23.3892 C   0  0  0  0  0  0  0  0  0  0  0  0
   -2.1497    5.2176   23.1596 C   0  0  0  0  0  0  0  0  0  0  0  0
   -2.3830    6.1052   24.1868 C   0  0  0  0  0  0  0  0  0  0  0  0
   -1.1960    5.9968   25.4169 S   0  0  0  0  0  0  0  0  0  0  0  0
    1.5461    3.1066   24.4413 N   0  0  0  0  0  0  0  0  0  0  0  0
    2.6020    2.8417   25.2246 N   0  0  0  0  0  0  0  0  0  0  0  0
    5.0457    4.2096   26.9714 C   0  0  0  0  0  0  0  0  0  0  0  0
    5.1281    5.0007   28.2895 C   0  0  0  0  0  0  0  0  0  0  0  0
    3.5951    4.8981   28.3833 C   0  0  0  0  0  0  0  0  0  0  0  0
   -0.1269   -0.2758   31.4918 C   0  0  0  0  0  0  0  0  0  0  0  0
   -0.4595    0.1919   30.0874 C   0  0  0  0  0  0  0  0  0  0  0  0
   -0.1358    1.5154   29.7249 C   0  0  0  0  0  0  0  0  0  0  0  0
   -0.4830    2.0277   28.4754 C   0  0  0  0  0  0  0  0  0  0  0  0
   -1.1604    1.2237   27.5692 C   0  0  0  0  0  0  0  0  0  0  0  0
   -1.4841   -0.0874   27.9113 C   0  0  0  0  0  0  0  0  0  0  0  0
   -1.1521   -0.5988   29.1671 C   0  0  0  0  0  0  0  0  0  0  0  0
    1.5744   -2.9234   33.1112 H   0  0  0  0  0  0  0  0  0  0  0  0
    1.9073   -5.4651   31.8975 H   0  0  0  0  0  0  0  0  0  0  0  0
    2.0367   -5.0696   33.6147 H   0  0  0  0  0  0  0  0  0  0  0  0
    0.1667   -6.2707   34.0015 H   0  0  0  0  0  0  0  0  0  0  0  0
   -0.7760   -5.0116   33.1900 H   0  0  0  0  0  0  0  0  0  0  0  0
   -1.4223   -8.1347   33.3347 H   0  0  0  0  0  0  0  0  0  0  0  0
    0.2513   -5.8705   30.1857 H   0  0  0  0  0  0  0  0  0  0  0  0
    2.5888   -1.2464   31.8127 H   0  0  0  0  0  0  0  0  0  0  0  0
    1.9093    0.2060   31.3037 H   0  0  0  0  0  0  0  0  0  0  0  0
    1.2323   -1.8259   29.4667 H   0  0  0  0  0  0  0  0  0  0  0  0
    2.4939   -0.9450   27.9098 H   0  0  0  0  0  0  0  0  0  0  0  0
    1.9689    0.4023   28.8412 H   0  0  0  0  0  0  0  0  0  0  0  0
    4.9219   -0.3223   31.1289 H   0  0  0  0  0  0  0  0  0  0  0  0
    3.5180    2.3533   29.1543 H   0  0  0  0  0  0  0  0  0  0  0  0
   -0.5889    3.6928   22.7092 H   0  0  0  0  0  0  0  0  0  0  0  0
   -2.7870    5.1331   22.2879 H   0  0  0  0  0  0  0  0  0  0  0  0
   -3.1946    6.8126   24.2866 H   0  0  0  0  0  0  0  0  0  0  0  0
    3.2631    2.1196   24.9418 H   0  0  0  0  0  0  0  0  0  0  0  0
    5.8468    3.4798   26.8224 H   0  0  0  0  0  0  0  0  0  0  0  0
    4.9984    4.8526   26.0836 H   0  0  0  0  0  0  0  0  0  0  0  0
    5.5330    6.0128   28.2110 H   0  0  0  0  0  0  0  0  0  0  0  0
    5.6546    4.4684   29.0900 H   0  0  0  0  0  0  0  0  0  0  0  0
    3.2023    4.7259   29.3900 H   0  0  0  0  0  0  0  0  0  0  0  0
    3.0854    5.7734   27.9623 H   0  0  0  0  0  0  0  0  0  0  0  0
   -1.1349   -0.4730   31.8957 H   0  0  0  0  0  0  0  0  0  0  0  0
    0.1831    0.5564   32.1500 H   0  0  0  0  0  0  0  0  0  0  0  0
    0.3713    2.1771   30.4247 H   0  0  0  0  0  0  0  0  0  0  0  0
   -0.2510    3.0595   28.2161 H   0  0  0  0  0  0  0  0  0  0  0  0
   -1.4561    1.6246   26.6036 H   0  0  0  0  0  0  0  0  0  0  0  0
   -2.0179   -0.7178   27.2026 H   0  0  0  0  0  0  0  0  0  0  0  0
   -1.4565   -1.6148   29.4081 H   0  0  0  0  0  0  0  0  0  0  0  0
  1  2  2  0
  2  3  1  0
  3  4  1  0
  4  5  1  0
  5  6  1  0
  6  7  1  0
  7  8  2  0
  8  9  1  0
  9 10  2  0
  2 11  1  0
 11 12  1  0
 12 13  1  0
 13 14  1  0
 14 15  1  0
 15 16  1  0
 15 17  1  0
 15 18  1  0
 18 19  2  0
 18 20  1  0
 20 21  1  0
 21 22  1  0
 22 23  2  0
 23 24  1  0
 24 25  1  0
 25 26  2  0
 26 27  1  0
 27 28  2  0
 28 29  1  0
 24 30  2  0
 30 31  1  0
 21 32  1  0
 32 33  1  0
 33 34  1  0
 11 35  1  0
 35 36  1  0
 36 37  2  0
 37 38  1  0
 38 39  2  0
 39 40  1  0
 40 41  2  0
 10  6  1  0
 34 21  1  0
 41 36  1  0
 31 22  1  0
 29 25  1  0
  3 42  1  0
  4 43  1  0
  4 44  1  0
  5 45  1  0
  5 46  1  0
  7 47  1  0
 10 48  1  0
 12 49  1  0
 12 50  1  0
 13 51  1  0
 14 52  1  0
 14 53  1  0
 16 54  1  0
 20 55  1  0
 26 56  1  0
 27 57  1  0
 28 58  1  0
 31 59  1  0
 32 60  1  0
 32 61  1  0
 33 62  1  0
 33 63  1  0
 34 64  1  0
 34 65  1  0
 35 66  1  0
 35 67  1  0
 37 68  1  0
 38 69  1  0
 39 70  1  0
 40 71  1  0
 41 72  1  0
M  END
>  <Energy>  (912) 
100.57567440302169

>  <compound_id>  (912) 
3768

>  <target_id>  (912) 
1

>  <reference_id>  (912) 
131

>  <inspiration_ids>  (912) 
[131, 53]

>  <energy_score>  (912) 
37.92464745362258

>  <distance_score>  (912) 
2.707918127197154

>  <path>  (912) 
/opt/xchem-fragalysis-2/maxwin/BulkDock/SCRATCH/505734/C3768-P131/C3768-P131.minimised.mol

>  <scratch_subdir>  (912) 
/opt/xchem-fragalysis-2/maxwin/BulkDock/SCRATCH/505734/C3768-P131

>  <fragmenstein_runtime>  (912) 
29.98504090309143

>  <fragmenstein_outcome>  (912) 
too moved

>  <fragmenstein_mode>  (912) 
expansion

>  <fragmenstein_error>  (912) 


$$$$
C3768-P53
     RDKit          3D

 72 76  0  0  0  0  0  0  0  0999 V2000
   -1.4120   -3.6908   31.1496 O   0  0  0  0  0  0  0  0  0  0  0  0
   -0.6041   -3.0811   30.5541 C   0  0  0  0  0  0  0  0  0  0  0  0
    0.7087   -3.4745   30.0775 N   0  0  0  0  0  0  0  0  0  0  0  0
    1.4587   -4.6965   30.2697 C   0  0  0  0  0  0  0  0  0  0  0  0
    1.1852   -5.4617   31.5750 C   0  0  0  0  0  0  0  0  0  0  0  0
    0.1466   -6.4660   31.5006 N   0  0  0  0  0  0  0  0  0  0  0  0
   -0.9029   -6.6142   32.3512 C   0  0  0  0  0  0  0  0  0  0  0  0
   -1.5981   -7.6764   32.0077 N   0  0  0  0  0  0  0  0  0  0  0  0
   -0.9788   -8.2563   30.9314 N   0  0  0  0  0  0  0  0  0  0  0  0
    0.0946   -7.5466   30.6760 C   0  0  0  0  0  0  0  0  0  0  0  0
   -0.5853   -1.6740   30.1596 N   0  0  0  0  0  0  0  0  0  0  0  0
   -1.2084   -1.5100   28.7869 C   0  0  0  0  0  0  0  0  0  0  0  0
   -0.4778   -0.4699   28.0492 N   0  0  0  0  0  0  0  0  0  0  0  0
   -1.3406    0.3869   27.2119 C   0  0  0  0  0  0  0  0  0  0  0  0
   -0.9386    1.8763   26.9352 C   0  0  0  0  0  0  0  0  0  0  0  0
   -2.2054    2.5916   25.8041 S   0  0  0  0  0  0  0  0  0  0  0  0
   -0.9967    2.8414   28.4407 Cl  0  0  0  0  0  0  0  0  0  0  0  0
    0.5298    2.1036   26.4258 C   0  0  0  0  0  0  0  0  0  0  0  0
    1.4120    1.4562   26.9212 O   0  0  0  0  0  0  0  0  0  0  0  0
    0.5765    3.1651   25.4399 N   0  0  0  0  0  0  0  0  0  0  0  0
    1.7097    3.8436   24.8134 C   0  0  0  0  0  0  0  0  0  0  0  0
    1.3023    4.2411   23.3463 C   0  0  0  0  0  0  0  0  0  0  0  0
    0.1260    4.7587   23.0617 N   0  0  0  0  0  0  0  0  0  0  0  0
    0.2007    5.0089   21.7155 C   0  0  0  0  0  0  0  0  0  0  0  0
   -0.9726    5.6556   20.9055 C   0  0  0  0  0  0  0  0  0  0  0  0
   -0.9299    5.9071   19.5505 C   0  0  0  0  0  0  0  0  0  0  0  0
   -2.1538    6.4608   19.0712 C   0  0  0  0  0  0  0  0  0  0  0  0
   -3.0777    6.6172   20.0815 C   0  0  0  0  0  0  0  0  0  0  0  0
   -2.4646    6.1082   21.5975 S   0  0  0  0  0  0  0  0  0  0  0  0
    1.3567    4.6380   21.1517 N   0  0  0  0  0  0  0  0  0  0  0  0
    2.0340    4.1276   22.1956 N   0  0  0  0  0  0  0  0  0  0  0  0
    3.1119    3.2270   24.9982 C   0  0  0  0  0  0  0  0  0  0  0  0
    3.6516    4.6578   25.2218 C   0  0  0  0  0  0  0  0  0  0  0  0
    2.2242    5.0562   25.6435 C   0  0  0  0  0  0  0  0  0  0  0  0
   -1.5304   -0.5608   30.4896 C   0  0  0  0  0  0  0  0  0  0  0  0
   -0.9021    0.1716   31.6654 C   0  0  0  0  0  0  0  0  0  0  0  0
   -1.3237   -0.0667   32.9757 C   0  0  0  0  0  0  0  0  0  0  0  0
   -0.7594    0.6546   34.0266 C   0  0  0  0  0  0  0  0  0  0  0  0
    0.2284    1.6081   33.7774 C   0  0  0  0  0  0  0  0  0  0  0  0
    0.6756    1.8287   32.4794 C   0  0  0  0  0  0  0  0  0  0  0  0
    0.1243    1.1022   31.4306 C   0  0  0  0  0  0  0  0  0  0  0  0
    1.1703   -2.6662   29.6717 H   0  0  0  0  0  0  0  0  0  0  0  0
    1.3031   -5.3181   29.3861 H   0  0  0  0  0  0  0  0  0  0  0  0
    2.5107   -4.3886   30.2644 H   0  0  0  0  0  0  0  0  0  0  0  0
    2.0908   -6.0121   31.8587 H   0  0  0  0  0  0  0  0  0  0  0  0
    0.9503   -4.7758   32.3966 H   0  0  0  0  0  0  0  0  0  0  0  0
   -1.1231   -5.9395   33.1673 H   0  0  0  0  0  0  0  0  0  0  0  0
    0.8357   -7.7844   29.9321 H   0  0  0  0  0  0  0  0  0  0  0  0
   -2.3120   -1.5129   28.7309 H   0  0  0  0  0  0  0  0  0  0  0  0
   -0.9614   -2.4339   28.2448 H   0  0  0  0  0  0  0  0  0  0  0  0
    0.1467    0.0616   28.6493 H   0  0  0  0  0  0  0  0  0  0  0  0
   -1.4472   -0.1293   26.2547 H   0  0  0  0  0  0  0  0  0  0  0  0
   -2.3492    0.4095   27.6464 H   0  0  0  0  0  0  0  0  0  0  0  0
   -2.9960    3.0793   26.7765 H   0  0  0  0  0  0  0  0  0  0  0  0
   -0.3653    3.5456   25.3142 H   0  0  0  0  0  0  0  0  0  0  0  0
   -0.0679    5.6861   18.9319 H   0  0  0  0  0  0  0  0  0  0  0  0
   -2.3481    6.7214   18.0381 H   0  0  0  0  0  0  0  0  0  0  0  0
   -4.0852    7.0023   20.0068 H   0  0  0  0  0  0  0  0  0  0  0  0
    2.9589    3.7312   22.0326 H   0  0  0  0  0  0  0  0  0  0  0  0
    3.2545    2.5997   25.8833 H   0  0  0  0  0  0  0  0  0  0  0  0
    3.5016    2.6737   24.1417 H   0  0  0  0  0  0  0  0  0  0  0  0
    3.9972    5.1568   24.3096 H   0  0  0  0  0  0  0  0  0  0  0  0
    4.4198    4.7594   25.9926 H   0  0  0  0  0  0  0  0  0  0  0  0
    2.0507    4.9733   26.7238 H   0  0  0  0  0  0  0  0  0  0  0  0
    1.9027    6.0503   25.3189 H   0  0  0  0  0  0  0  0  0  0  0  0
   -1.7732    0.2618   29.8050 H   0  0  0  0  0  0  0  0  0  0  0  0
   -2.4766   -1.0029   30.8385 H   0  0  0  0  0  0  0  0  0  0  0  0
   -2.0832   -0.8165   33.1871 H   0  0  0  0  0  0  0  0  0  0  0  0
   -1.0846    0.4672   35.0472 H   0  0  0  0  0  0  0  0  0  0  0  0
    0.6633    2.1666   34.6025 H   0  0  0  0  0  0  0  0  0  0  0  0
    1.4571    2.5589   32.2856 H   0  0  0  0  0  0  0  0  0  0  0  0
    0.4997    1.2800   30.4277 H   0  0  0  0  0  0  0  0  0  0  0  0
  1  2  2  0
  2  3  1  0
  3  4  1  0
  4  5  1  0
  5  6  1  0
  6  7  1  0
  7  8  2  0
  8  9  1  0
  9 10  2  0
  2 11  1  0
 11 12  1  0
 12 13  1  0
 13 14  1  0
 14 15  1  0
 15 16  1  0
 15 17  1  0
 15 18  1  0
 18 19  2  0
 18 20  1  0
 20 21  1  0
 21 22  1  0
 22 23  2  0
 23 24  1  0
 24 25  1  0
 25 26  2  0
 26 27  1  0
 27 28  2  0
 28 29  1  0
 24 30  2  0
 30 31  1  0
 21 32  1  0
 32 33  1  0
 33 34  1  0
 11 35  1  0
 35 36  1  0
 36 37  2  0
 37 38  1  0
 38 39  2  0
 39 40  1  0
 40 41  2  0
 10  6  1  0
 34 21  1  0
 41 36  1  0
 31 22  1  0
 29 25  1  0
  3 42  1  0
  4 43  1  0
  4 44  1  0
  5 45  1  0
  5 46  1  0
  7 47  1  0
 10 48  1  0
 12 49  1  0
 12 50  1  0
 13 51  1  0
 14 52  1  0
 14 53  1  0
 16 54  1  0
 20 55  1  0
 26 56  1  0
 27 57  1  0
 28 58  1  0
 31 59  1  0
 32 60  1  0
 32 61  1  0
 33 62  1  0
 33 63  1  0
 34 64  1  0
 34 65  1  0
 35 66  1  0
 35 67  1  0
 37 68  1  0
 38 69  1  0
 39 70  1  0
 40 71  1  0
 41 72  1  0
M  END
>  <Energy>  (913) 
93.218367482386981

>  <compound_id>  (913) 
3768

>  <target_id>  (913) 
1

>  <reference_id>  (913) 
53

>  <inspiration_ids>  (913) 
[131, 53]

>  <energy_score>  (913) 
30.567340532982428

>  <distance_score>  (913) 
2.903888405462347

>  <path>  (913) 
/opt/xchem-fragalysis-2/maxwin/BulkDock/SCRATCH/505734/C3768-P53/C3768-P53.minimised.mol

>  <scratch_subdir>  (913) 
/opt/xchem-fragalysis-2/maxwin/BulkDock/SCRATCH/505734/C3768-P53

>  <fragmenstein_runtime>  (913) 
25.37355089187622

>  <fragmenstein_outcome>  (913) 
too moved

>  <fragmenstein_mode>  (913) 
expansion

>  <fragmenstein_error>  (913) 


$$$$
C3791-P131
     RDKit          3D

 47 51  0  0  0  0  0  0  0  0999 V2000
   -0.9897    2.8340   26.5062 C   0  0  0  0  0  0  0  0  0  0  0  0
   -0.2121    4.0170   26.0033 C   0  0  0  0  0  0  0  0  0  0  0  0
   -0.8662    4.8624   25.0896 C   0  0  0  0  0  0  0  0  0  0  0  0
   -0.2326    5.9913   24.5814 C   0  0  0  0  0  0  0  0  0  0  0  0
    1.0569    6.3029   24.9896 C   0  0  0  0  0  0  0  0  0  0  0  0
    1.7126    5.4856   25.9090 C   0  0  0  0  0  0  0  0  0  0  0  0
    1.1008    4.3319   26.4376 C   0  0  0  0  0  0  0  0  0  0  0  0
    1.8606    3.5352   27.4254 C   0  0  0  0  0  0  0  0  0  0  0  0
    3.1390    3.0347   27.1108 C   0  0  0  0  0  0  0  0  0  0  0  0
    3.9264    2.3485   28.0501 C   0  0  0  0  0  0  0  0  0  0  0  0
    3.4065    2.1365   29.3324 C   0  0  0  0  0  0  0  0  0  0  0  0
    4.0109    1.6100   30.4520 N   0  0  0  0  0  0  0  0  0  0  0  0
    3.1206    1.7423   31.4115 C   0  0  0  0  0  0  0  0  0  0  0  0
    1.8898    2.0727   30.8857 N   0  0  0  0  0  0  0  0  0  0  0  0
    0.6305    2.4331   31.6307 N   0  0  0  0  0  0  0  0  0  0  0  0
    0.9093    3.4102   32.6044 C   0  0  0  0  0  0  0  0  0  0  0  0
    1.2227    3.2977   33.7562 O   0  0  0  0  0  0  0  0  0  0  0  0
    0.5200    0.8647   31.7467 C   0  0  0  0  0  0  0  0  0  0  0  0
   -0.2402    0.1401   30.6545 C   0  0  0  0  0  0  0  0  0  0  0  0
   -0.7542    0.6966   29.5380 C   0  0  0  0  0  0  0  0  0  0  0  0
   -1.4347   -0.1192   28.5514 C   0  0  0  0  0  0  0  0  0  0  0  0
   -1.6308   -1.4328   28.7395 C   0  0  0  0  0  0  0  0  0  0  0  0
   -1.1764   -2.0373   29.9342 C   0  0  0  0  0  0  0  0  0  0  0  0
   -1.2998   -3.2537   30.4212 N   0  0  0  0  0  0  0  0  0  0  0  0
   -0.6639   -3.2906   31.6365 N   0  0  0  0  0  0  0  0  0  0  0  0
   -0.1674   -2.0953   31.8620 C   0  0  0  0  0  0  0  0  0  0  0  0
   -0.4777   -1.2417   30.8327 N   0  0  0  0  0  0  0  0  0  0  0  0
    2.1091    2.5546   29.6132 C   0  0  0  0  0  0  0  0  0  0  0  0
    1.3411    3.3065   28.7117 C   0  0  0  0  0  0  0  0  0  0  0  0
   -1.7390    2.5108   25.7749 H   0  0  0  0  0  0  0  0  0  0  0  0
   -0.3273    1.9804   26.6697 H   0  0  0  0  0  0  0  0  0  0  0  0
   -1.5063    3.0915   27.4352 H   0  0  0  0  0  0  0  0  0  0  0  0
   -1.8875    4.6500   24.7752 H   0  0  0  0  0  0  0  0  0  0  0  0
   -0.7551    6.6345   23.8780 H   0  0  0  0  0  0  0  0  0  0  0  0
    1.5486    7.1918   24.6038 H   0  0  0  0  0  0  0  0  0  0  0  0
    2.7125    5.7704   26.2320 H   0  0  0  0  0  0  0  0  0  0  0  0
    3.5485    3.2009   26.1157 H   0  0  0  0  0  0  0  0  0  0  0  0
    4.9288    2.0152   27.8049 H   0  0  0  0  0  0  0  0  0  0  0  0
    3.2911    1.5711   32.4670 H   0  0  0  0  0  0  0  0  0  0  0  0
    0.8206    4.4048   32.1270 H   0  0  0  0  0  0  0  0  0  0  0  0
    1.3994    0.3238   32.1270 H   0  0  0  0  0  0  0  0  0  0  0  0
   -0.1434    0.7993   32.6265 H   0  0  0  0  0  0  0  0  0  0  0  0
   -0.6952    1.7527   29.3225 H   0  0  0  0  0  0  0  0  0  0  0  0
   -1.7909    0.3478   27.6383 H   0  0  0  0  0  0  0  0  0  0  0  0
   -2.1363   -2.0362   27.9953 H   0  0  0  0  0  0  0  0  0  0  0  0
    0.3921   -1.8082   32.7396 H   0  0  0  0  0  0  0  0  0  0  0  0
    0.3749    3.7140   28.9994 H   0  0  0  0  0  0  0  0  0  0  0  0
  1  2  1  0
  2  3  2  0
  3  4  1  0
  4  5  2  0
  5  6  1  0
  6  7  2  0
  7  8  1  0
  8  9  2  0
  9 10  1  0
 10 11  2  0
 11 12  1  0
 12 13  2  0
 13 14  1  0
 14 15  1  0
 15 16  1  0
 16 17  2  0
 15 18  1  0
 18 19  1  0
 19 20  2  0
 20 21  1  0
 21 22  2  0
 22 23  1  0
 23 24  2  0
 24 25  1  0
 25 26  2  0
 26 27  1  0
 14 28  1  0
 28 29  2  0
  7  2  1  0
 29  8  1  0
 28 11  1  0
 27 19  1  0
 27 23  1  0
  1 30  1  0
  1 31  1  0
  1 32  1  0
  3 33  1  0
  4 34  1  0
  5 35  1  0
  6 36  1  0
  9 37  1  0
 10 38  1  0
 13 39  1  0
 16 40  1  0
 18 41  1  0
 18 42  1  0
 20 43  1  0
 21 44  1  0
 22 45  1  0
 26 46  1  0
 29 47  1  0
M  END
>  <Energy>  (914) 
110.70857367682738

>  <compound_id>  (914) 
3791

>  <target_id>  (914) 
1

>  <reference_id>  (914) 
131

>  <inspiration_ids>  (914) 
[131, 57]

>  <energy_score>  (914) 
40.12921470247295

>  <distance_score>  (914) 
4.369471257140137

>  <path>  (914) 
/opt/xchem-fragalysis-2/maxwin/BulkDock/SCRATCH/505734/C3791-P131/C3791-P131.minimised.mol

>  <scratch_subdir>  (914) 
/opt/xchem-fragalysis-2/maxwin/BulkDock/SCRATCH/505734/C3791-P131

>  <fragmenstein_runtime>  (914) 
5.5759804248809814

>  <fragmenstein_outcome>  (914) 
too moved

>  <fragmenstein_mode>  (914) 
expansion

>  <fragmenstein_error>  (914) 


$$$$
C3791-P57
     RDKit          3D

 47 51  0  0  0  0  0  0  0  0999 V2000
   -1.2705    3.1011   27.9923 C   0  0  0  0  0  0  0  0  0  0  0  0
   -0.3998    3.5301   26.8409 C   0  0  0  0  0  0  0  0  0  0  0  0
   -0.9509    4.5092   25.9881 C   0  0  0  0  0  0  0  0  0  0  0  0
   -0.2524    4.9998   24.8914 C   0  0  0  0  0  0  0  0  0  0  0  0
    1.0119    4.5116   24.6169 C   0  0  0  0  0  0  0  0  0  0  0  0
    1.5614    3.5222   25.4323 C   0  0  0  0  0  0  0  0  0  0  0  0
    0.8804    2.9941   26.5582 C   0  0  0  0  0  0  0  0  0  0  0  0
    1.5189    1.8510   27.2776 C   0  0  0  0  0  0  0  0  0  0  0  0
    2.9168    1.7981   27.4421 C   0  0  0  0  0  0  0  0  0  0  0  0
    3.5795    0.6139   27.7978 C   0  0  0  0  0  0  0  0  0  0  0  0
    2.8221   -0.5375   28.0448 C   0  0  0  0  0  0  0  0  0  0  0  0
    3.2519   -1.8315   28.2307 N   0  0  0  0  0  0  0  0  0  0  0  0
    2.1481   -2.5328   28.3412 C   0  0  0  0  0  0  0  0  0  0  0  0
    1.0586   -1.7053   28.5327 N   0  0  0  0  0  0  0  0  0  0  0  0
   -0.3336   -2.2736   28.8586 N   0  0  0  0  0  0  0  0  0  0  0  0
   -1.3375   -1.4613   28.2935 C   0  0  0  0  0  0  0  0  0  0  0  0
   -1.9290   -0.5202   28.7473 O   0  0  0  0  0  0  0  0  0  0  0  0
    0.2709   -2.3003   30.3104 C   0  0  0  0  0  0  0  0  0  0  0  0
    0.1450   -1.0233   31.1037 C   0  0  0  0  0  0  0  0  0  0  0  0
    1.2130   -0.2337   31.3583 C   0  0  0  0  0  0  0  0  0  0  0  0
    1.0702    0.9425   32.1951 C   0  0  0  0  0  0  0  0  0  0  0  0
   -0.0843    1.2109   32.8275 C   0  0  0  0  0  0  0  0  0  0  0  0
   -1.1988    0.3516   32.6399 C   0  0  0  0  0  0  0  0  0  0  0  0
   -2.4025    0.3346   33.1749 N   0  0  0  0  0  0  0  0  0  0  0  0
   -3.1053   -0.6932   32.5962 N   0  0  0  0  0  0  0  0  0  0  0  0
   -2.3002   -1.2956   31.7488 C   0  0  0  0  0  0  0  0  0  0  0  0
   -1.0650   -0.7006   31.7453 N   0  0  0  0  0  0  0  0  0  0  0  0
    1.4266   -0.4515   28.0743 C   0  0  0  0  0  0  0  0  0  0  0  0
    0.7654    0.7182   27.6602 C   0  0  0  0  0  0  0  0  0  0  0  0
   -0.6685    2.8244   28.8626 H   0  0  0  0  0  0  0  0  0  0  0  0
   -1.9167    3.9246   28.3138 H   0  0  0  0  0  0  0  0  0  0  0  0
   -1.9138    2.2669   27.6980 H   0  0  0  0  0  0  0  0  0  0  0  0
   -1.9476    4.9017   26.1853 H   0  0  0  0  0  0  0  0  0  0  0  0
   -0.7035    5.7581   24.2572 H   0  0  0  0  0  0  0  0  0  0  0  0
    1.5637    4.8805   23.7567 H   0  0  0  0  0  0  0  0  0  0  0  0
    2.5342    3.1285   25.1421 H   0  0  0  0  0  0  0  0  0  0  0  0
    3.5267    2.6693   27.2072 H   0  0  0  0  0  0  0  0  0  0  0  0
    4.6633    0.5689   27.8136 H   0  0  0  0  0  0  0  0  0  0  0  0
    2.0752   -3.6108   28.3875 H   0  0  0  0  0  0  0  0  0  0  0  0
   -1.5516   -1.8172   27.2769 H   0  0  0  0  0  0  0  0  0  0  0  0
   -0.4011   -3.0278   30.7925 H   0  0  0  0  0  0  0  0  0  0  0  0
    1.2301   -2.8213   30.4516 H   0  0  0  0  0  0  0  0  0  0  0  0
    2.2069   -0.4418   30.9713 H   0  0  0  0  0  0  0  0  0  0  0  0
    1.9331    1.5922   32.3134 H   0  0  0  0  0  0  0  0  0  0  0  0
   -0.1875    2.0748   33.4742 H   0  0  0  0  0  0  0  0  0  0  0  0
   -2.5584   -2.1378   31.1266 H   0  0  0  0  0  0  0  0  0  0  0  0
   -0.3082    0.7244   27.5297 H   0  0  0  0  0  0  0  0  0  0  0  0
  1  2  1  0
  2  3  2  0
  3  4  1  0
  4  5  2  0
  5  6  1  0
  6  7  2  0
  7  8  1  0
  8  9  2  0
  9 10  1  0
 10 11  2  0
 11 12  1  0
 12 13  2  0
 13 14  1  0
 14 15  1  0
 15 16  1  0
 16 17  2  0
 15 18  1  0
 18 19  1  0
 19 20  2  0
 20 21  1  0
 21 22  2  0
 22 23  1  0
 23 24  2  0
 24 25  1  0
 25 26  2  0
 26 27  1  0
 14 28  1  0
 28 29  2  0
  7  2  1  0
 29  8  1  0
 28 11  1  0
 27 19  1  0
 27 23  1  0
  1 30  1  0
  1 31  1  0
  1 32  1  0
  3 33  1  0
  4 34  1  0
  5 35  1  0
  6 36  1  0
  9 37  1  0
 10 38  1  0
 13 39  1  0
 16 40  1  0
 18 41  1  0
 18 42  1  0
 20 43  1  0
 21 44  1  0
 22 45  1  0
 26 46  1  0
 29 47  1  0
M  END
>  <Energy>  (915) 
124.04662817517506

>  <compound_id>  (915) 
3791

>  <target_id>  (915) 
1

>  <reference_id>  (915) 
57

>  <inspiration_ids>  (915) 
[131, 57]

>  <energy_score>  (915) 
53.4672692008192

>  <distance_score>  (915) 
3.417819905659587

>  <path>  (915) 
/opt/xchem-fragalysis-2/maxwin/BulkDock/SCRATCH/505734/C3791-P57/C3791-P57.minimised.mol

>  <scratch_subdir>  (915) 
/opt/xchem-fragalysis-2/maxwin/BulkDock/SCRATCH/505734/C3791-P57

>  <fragmenstein_runtime>  (915) 
4.251494407653809

>  <fragmenstein_outcome>  (915) 
too moved

>  <fragmenstein_mode>  (915) 
expansion

>  <fragmenstein_error>  (915) 


$$$$
C3795-P131
     RDKit          3D

 43 44  0  0  0  0  0  0  0  0999 V2000
   -1.8596    0.7781   27.3865 C   0  0  0  0  0  0  0  0  0  0  0  0
   -0.7540    1.2272   28.2982 C   0  0  0  0  0  0  0  0  0  0  0  0
   -0.0431    2.3729   27.8908 C   0  0  0  0  0  0  0  0  0  0  0  0
    0.9511    2.9292   28.6878 C   0  0  0  0  0  0  0  0  0  0  0  0
    1.2444    2.3567   29.9150 C   0  0  0  0  0  0  0  0  0  0  0  0
    0.5410    1.2312   30.3431 C   0  0  0  0  0  0  0  0  0  0  0  0
   -0.4664    0.6363   29.5525 C   0  0  0  0  0  0  0  0  0  0  0  0
   -1.2728   -0.5822   30.0925 C   0  0  0  0  0  0  0  0  0  0  0  0
   -0.6126   -1.7355   31.0738 N   0  0  0  0  0  0  0  0  0  0  0  0
    0.1580   -2.0697   29.7375 C   0  0  0  0  0  0  0  0  0  0  0  0
   -0.8684   -0.6345   31.8897 O   0  0  0  0  0  0  0  0  0  0  0  0
   -1.2339   -3.0050   31.6693 C   0  0  0  0  0  0  0  0  0  0  0  0
   -2.2992   -3.4516   31.4809 O   0  0  0  0  0  0  0  0  0  0  0  0
   -0.1937   -3.4257   32.5707 N   0  0  0  0  0  0  0  0  0  0  0  0
   -0.1778   -4.4619   33.5832 C   0  0  0  0  0  0  0  0  0  0  0  0
    0.5272   -5.7653   33.2143 C   0  0  0  0  0  0  0  0  0  0  0  0
   -0.1459   -6.5685   32.2187 N   0  0  0  0  0  0  0  0  0  0  0  0
   -1.0333   -7.5742   32.4670 C   0  0  0  0  0  0  0  0  0  0  0  0
   -1.3538   -8.1653   31.3386 N   0  0  0  0  0  0  0  0  0  0  0  0
   -0.6561   -7.5504   30.3329 N   0  0  0  0  0  0  0  0  0  0  0  0
    0.0698   -6.5882   30.8655 C   0  0  0  0  0  0  0  0  0  0  0  0
    0.9597   -5.6762   30.1207 C   0  0  0  0  0  0  0  0  0  0  0  0
   -1.6309    1.0231   26.3466 H   0  0  0  0  0  0  0  0  0  0  0  0
   -2.7735    1.3159   27.6429 H   0  0  0  0  0  0  0  0  0  0  0  0
   -2.0244   -0.2996   27.4175 H   0  0  0  0  0  0  0  0  0  0  0  0
   -0.2882    2.8611   26.9489 H   0  0  0  0  0  0  0  0  0  0  0  0
    1.4730    3.8248   28.3624 H   0  0  0  0  0  0  0  0  0  0  0  0
    2.0015    2.8006   30.5556 H   0  0  0  0  0  0  0  0  0  0  0  0
    0.7810    0.8384   31.3286 H   0  0  0  0  0  0  0  0  0  0  0  0
   -1.7433   -1.1384   29.2670 H   0  0  0  0  0  0  0  0  0  0  0  0
   -2.2107   -0.1872   30.5485 H   0  0  0  0  0  0  0  0  0  0  0  0
   -0.4874   -2.5657   29.0037 H   0  0  0  0  0  0  0  0  0  0  0  0
    0.8231   -1.2850   29.3773 H   0  0  0  0  0  0  0  0  0  0  0  0
    0.8599   -2.8371   30.0818 H   0  0  0  0  0  0  0  0  0  0  0  0
    0.5683   -2.7561   32.5328 H   0  0  0  0  0  0  0  0  0  0  0  0
    0.3113   -4.0239   34.4596 H   0  0  0  0  0  0  0  0  0  0  0  0
   -1.2106   -4.6751   33.8484 H   0  0  0  0  0  0  0  0  0  0  0  0
    0.6109   -6.3903   34.1125 H   0  0  0  0  0  0  0  0  0  0  0  0
    1.5503   -5.5761   32.8744 H   0  0  0  0  0  0  0  0  0  0  0  0
   -1.4014   -7.8423   33.4499 H   0  0  0  0  0  0  0  0  0  0  0  0
    1.6098   -5.0810   30.7646 H   0  0  0  0  0  0  0  0  0  0  0  0
    0.3571   -4.9922   29.5187 H   0  0  0  0  0  0  0  0  0  0  0  0
    1.6058   -6.2422   29.4440 H   0  0  0  0  0  0  0  0  0  0  0  0
  1  2  1  0
  2  3  2  0
  3  4  1  0
  4  5  2  0
  5  6  1  0
  6  7  2  0
  7  8  1  0
  8  9  1  0
  9 10  1  0
  9 11  1  0
  9 12  1  0
 12 13  2  0
 12 14  1  0
 14 15  1  0
 15 16  1  0
 16 17  1  0
 17 18  1  0
 18 19  2  0
 19 20  1  0
 20 21  2  0
 21 22  1  0
  7  2  1  0
 21 17  1  0
  1 23  1  0
  1 24  1  0
  1 25  1  0
  3 26  1  0
  4 27  1  0
  5 28  1  0
  6 29  1  0
  8 30  1  0
  8 31  1  0
 10 32  1  0
 10 33  1  0
 10 34  1  0
 14 35  1  0
 15 36  1  0
 15 37  1  0
 16 38  1  0
 16 39  1  0
 18 40  1  0
 22 41  1  0
 22 42  1  0
 22 43  1  0
M  CHG  2   9   1  11  -1
M  END
>  <Energy>  (916) 
184.32036700853712

>  <compound_id>  (916) 
3795

>  <target_id>  (916) 
1

>  <reference_id>  (916) 
131

>  <inspiration_ids>  (916) 
[131, 128]

>  <energy_score>  (916) 
123.39174270161931

>  <distance_score>  (916) 
1.458482249898913

>  <path>  (916) 
/opt/xchem-fragalysis-2/maxwin/BulkDock/SCRATCH/505734/C3795-P131/C3795-P131.minimised.mol

>  <scratch_subdir>  (916) 
/opt/xchem-fragalysis-2/maxwin/BulkDock/SCRATCH/505734/C3795-P131

>  <fragmenstein_runtime>  (916) 
6.517795562744141

>  <fragmenstein_outcome>  (916) 
too moved

>  <fragmenstein_mode>  (916) 
expansion

>  <fragmenstein_error>  (916) 


$$$$
C3795-P128
     RDKit          3D

 43 44  0  0  0  0  0  0  0  0999 V2000
   -1.2662   -0.8914   28.1772 C   0  0  0  0  0  0  0  0  0  0  0  0
   -0.6537    0.4216   28.5598 C   0  0  0  0  0  0  0  0  0  0  0  0
   -1.2840    1.5872   28.0829 C   0  0  0  0  0  0  0  0  0  0  0  0
   -0.8056    2.8537   28.4072 C   0  0  0  0  0  0  0  0  0  0  0  0
    0.2885    2.9796   29.2517 C   0  0  0  0  0  0  0  0  0  0  0  0
    0.9187    1.8375   29.7423 C   0  0  0  0  0  0  0  0  0  0  0  0
    0.4778    0.5424   29.3921 C   0  0  0  0  0  0  0  0  0  0  0  0
    1.4147   -0.6419   29.7676 C   0  0  0  0  0  0  0  0  0  0  0  0
    1.1071   -1.7566   30.9500 N   0  0  0  0  0  0  0  0  0  0  0  0
    2.1183   -2.5746   30.0639 C   0  0  0  0  0  0  0  0  0  0  0  0
    1.0392   -0.5255   31.5751 O   0  0  0  0  0  0  0  0  0  0  0  0
   -0.1592   -2.5836   31.2314 C   0  0  0  0  0  0  0  0  0  0  0  0
   -1.1538   -2.6308   30.6169 O   0  0  0  0  0  0  0  0  0  0  0  0
    0.2325   -3.2870   32.4251 N   0  0  0  0  0  0  0  0  0  0  0  0
   -0.5119   -4.1911   33.2829 C   0  0  0  0  0  0  0  0  0  0  0  0
    0.0689   -5.6083   33.3762 C   0  0  0  0  0  0  0  0  0  0  0  0
   -0.4486   -6.5508   32.4038 N   0  0  0  0  0  0  0  0  0  0  0  0
   -1.2832   -7.5946   32.6760 C   0  0  0  0  0  0  0  0  0  0  0  0
   -1.5350   -8.2576   31.5711 N   0  0  0  0  0  0  0  0  0  0  0  0
   -0.8136   -7.6791   30.5638 N   0  0  0  0  0  0  0  0  0  0  0  0
   -0.1340   -6.6744   31.0756 C   0  0  0  0  0  0  0  0  0  0  0  0
    0.8162   -5.8272   30.3398 C   0  0  0  0  0  0  0  0  0  0  0  0
   -0.5223   -1.6813   28.0621 H   0  0  0  0  0  0  0  0  0  0  0  0
   -1.8078   -0.8043   27.2317 H   0  0  0  0  0  0  0  0  0  0  0  0
   -1.9900   -1.1798   28.9374 H   0  0  0  0  0  0  0  0  0  0  0  0
   -2.1661    1.5130   27.4478 H   0  0  0  0  0  0  0  0  0  0  0  0
   -1.3174    3.7379   28.0350 H   0  0  0  0  0  0  0  0  0  0  0  0
    0.6402    3.9673   29.5376 H   0  0  0  0  0  0  0  0  0  0  0  0
    1.7806    1.9575   30.3958 H   0  0  0  0  0  0  0  0  0  0  0  0
    2.4273   -0.2239   29.9558 H   0  0  0  0  0  0  0  0  0  0  0  0
    1.4670   -1.1251   28.7764 H   0  0  0  0  0  0  0  0  0  0  0  0
    1.6135   -2.9989   29.1879 H   0  0  0  0  0  0  0  0  0  0  0  0
    3.0870   -2.0855   29.9029 H   0  0  0  0  0  0  0  0  0  0  0  0
    2.3648   -3.4145   30.7211 H   0  0  0  0  0  0  0  0  0  0  0  0
    1.1350   -2.9389   32.7336 H   0  0  0  0  0  0  0  0  0  0  0  0
   -0.4946   -3.7302   34.2762 H   0  0  0  0  0  0  0  0  0  0  0  0
   -1.5458   -4.2090   32.9305 H   0  0  0  0  0  0  0  0  0  0  0  0
   -0.1778   -6.0206   34.3626 H   0  0  0  0  0  0  0  0  0  0  0  0
    1.1615   -5.6071   33.2929 H   0  0  0  0  0  0  0  0  0  0  0  0
   -1.6716   -7.8320   33.6584 H   0  0  0  0  0  0  0  0  0  0  0  0
    0.2954   -4.9892   29.8732 H   0  0  0  0  0  0  0  0  0  0  0  0
    1.3070   -6.3980   29.5481 H   0  0  0  0  0  0  0  0  0  0  0  0
    1.6085   -5.4559   30.9922 H   0  0  0  0  0  0  0  0  0  0  0  0
  1  2  1  0
  2  3  2  0
  3  4  1  0
  4  5  2  0
  5  6  1  0
  6  7  2  0
  7  8  1  0
  8  9  1  0
  9 10  1  0
  9 11  1  0
  9 12  1  0
 12 13  2  0
 12 14  1  0
 14 15  1  0
 15 16  1  0
 16 17  1  0
 17 18  1  0
 18 19  2  0
 19 20  1  0
 20 21  2  0
 21 22  1  0
  7  2  1  0
 21 17  1  0
  1 23  1  0
  1 24  1  0
  1 25  1  0
  3 26  1  0
  4 27  1  0
  5 28  1  0
  6 29  1  0
  8 30  1  0
  8 31  1  0
 10 32  1  0
 10 33  1  0
 10 34  1  0
 14 35  1  0
 15 36  1  0
 15 37  1  0
 16 38  1  0
 16 39  1  0
 18 40  1  0
 22 41  1  0
 22 42  1  0
 22 43  1  0
M  CHG  2   9   1  11  -1
M  END
>  <Energy>  (917) 
191.51821218767074

>  <compound_id>  (917) 
3795

>  <target_id>  (917) 
1

>  <reference_id>  (917) 
128

>  <inspiration_ids>  (917) 
[131, 128]

>  <energy_score>  (917) 
130.58958788075068

>  <distance_score>  (917) 
1.7829573329805959

>  <path>  (917) 
/opt/xchem-fragalysis-2/maxwin/BulkDock/SCRATCH/505734/C3795-P128/C3795-P128.minimised.mol

>  <scratch_subdir>  (917) 
/opt/xchem-fragalysis-2/maxwin/BulkDock/SCRATCH/505734/C3795-P128

>  <fragmenstein_runtime>  (917) 
7.334753513336182

>  <fragmenstein_outcome>  (917) 
too moved

>  <fragmenstein_mode>  (917) 
expansion

>  <fragmenstein_error>  (917) 


$$$$
C3777-P131
     RDKit          3D

 61 63  0  0  0  0  0  0  0  0999 V2000
   -2.2199  -11.5631   29.3387 C   0  0  0  0  0  0  0  0  0  0  0  0
   -1.1372  -10.3828   30.1160 C   0  0  0  0  0  0  0  0  0  0  0  0
   -0.7840   -9.5318   31.2652 O   0  0  0  0  0  0  0  0  0  0  0  0
   -0.8885   -8.1908   31.0593 C   0  0  0  0  0  0  0  0  0  0  0  0
   -1.4485   -7.7038   30.0858 O   0  0  0  0  0  0  0  0  0  0  0  0
   -0.1785   -7.3530   32.0467 C   0  0  0  0  0  0  0  0  0  0  0  0
   -0.3904   -6.0357   31.9083 C   0  0  0  0  0  0  0  0  0  0  0  0
    0.5258   -4.8850   32.2825 C   0  0  0  0  0  0  0  0  0  0  0  0
   -0.1426   -3.8758   33.2365 C   0  0  0  0  0  0  0  0  0  0  0  0
   -1.0533   -3.0179   32.3575 C   0  0  0  0  0  0  0  0  0  0  0  0
   -1.2440   -1.5023   32.5087 C   0  0  0  0  0  0  0  0  0  0  0  0
   -2.3704   -1.0733   32.5479 O   0  0  0  0  0  0  0  0  0  0  0  0
   -0.0008   -0.8240   32.4813 N   0  0  0  0  0  0  0  0  0  0  0  0
    0.5075   -0.6114   33.8874 C   0  0  0  0  0  0  0  0  0  0  0  0
    0.3160    0.6366   32.3783 C   0  0  0  0  0  0  0  0  0  0  0  0
    0.3370    0.9259   30.8642 C   0  0  0  0  0  0  0  0  0  0  0  0
   -0.7652    0.6210   30.0423 C   0  0  0  0  0  0  0  0  0  0  0  0
   -0.7198    0.8337   28.6649 C   0  0  0  0  0  0  0  0  0  0  0  0
    0.4246    1.3721   28.0895 C   0  0  0  0  0  0  0  0  0  0  0  0
    1.5243    1.6851   28.8854 C   0  0  0  0  0  0  0  0  0  0  0  0
    1.4842    1.4611   30.2633 C   0  0  0  0  0  0  0  0  0  0  0  0
   -0.5515   -3.2410   30.9058 C   0  0  0  0  0  0  0  0  0  0  0  0
    0.8123   -3.9899   31.0171 C   0  0  0  0  0  0  0  0  0  0  0  0
    1.1054   -4.7299   29.7794 N   0  0  0  0  0  0  0  0  0  0  0  0
    1.7368   -3.7664   28.8773 N   0  0  0  0  0  0  0  0  0  0  0  0
    2.0723   -2.6041   29.7076 C   0  0  0  0  0  0  0  0  0  0  0  0
    1.9240   -3.0198   31.1103 N   0  0  0  0  0  0  0  0  0  0  0  0
    3.1929   -3.6125   31.5608 C   0  0  0  0  0  0  0  0  0  0  0  0
    3.4853   -3.2717   33.0181 C   0  0  0  0  0  0  0  0  0  0  0  0
   -2.2030  -11.3822   28.2688 H   0  0  0  0  0  0  0  0  0  0  0  0
   -2.0750  -12.6206   29.2895 H   0  0  0  0  0  0  0  0  0  0  0  0
   -3.2633  -11.5701   29.6226 H   0  0  0  0  0  0  0  0  0  0  0  0
   -0.8015   -9.7711   29.2666 H   0  0  0  0  0  0  0  0  0  0  0  0
   -2.0469  -10.1225   30.5736 H   0  0  0  0  0  0  0  0  0  0  0  0
    0.6239   -7.7622   32.6292 H   0  0  0  0  0  0  0  0  0  0  0  0
   -1.2407   -5.7405   31.3089 H   0  0  0  0  0  0  0  0  0  0  0  0
    1.4362   -5.3008   32.7241 H   0  0  0  0  0  0  0  0  0  0  0  0
    0.6323   -3.2908   33.7264 H   0  0  0  0  0  0  0  0  0  0  0  0
   -0.7091   -4.3753   34.0297 H   0  0  0  0  0  0  0  0  0  0  0  0
   -2.0631   -3.4324   32.4264 H   0  0  0  0  0  0  0  0  0  0  0  0
    0.2520   -1.4985   34.4765 H   0  0  0  0  0  0  0  0  0  0  0  0
    0.0014    0.1784   34.4695 H   0  0  0  0  0  0  0  0  0  0  0  0
    1.6052   -0.5608   33.9266 H   0  0  0  0  0  0  0  0  0  0  0  0
    1.3062    0.9702   32.7315 H   0  0  0  0  0  0  0  0  0  0  0  0
   -0.4964    1.2563   32.7879 H   0  0  0  0  0  0  0  0  0  0  0  0
   -1.6806    0.2153   30.4648 H   0  0  0  0  0  0  0  0  0  0  0  0
   -1.5811    0.5906   28.0466 H   0  0  0  0  0  0  0  0  0  0  0  0
    0.4546    1.5602   27.0215 H   0  0  0  0  0  0  0  0  0  0  0  0
    2.4161    2.1086   28.4305 H   0  0  0  0  0  0  0  0  0  0  0  0
    2.3612    1.7051   30.8575 H   0  0  0  0  0  0  0  0  0  0  0  0
   -1.2907   -3.8425   30.3672 H   0  0  0  0  0  0  0  0  0  0  0  0
   -0.5002   -2.3184   30.3204 H   0  0  0  0  0  0  0  0  0  0  0  0
    0.2439   -5.1163   29.3793 H   0  0  0  0  0  0  0  0  0  0  0  0
    1.0728   -3.4271   28.1724 H   0  0  0  0  0  0  0  0  0  0  0  0
    3.0651   -2.2143   29.4550 H   0  0  0  0  0  0  0  0  0  0  0  0
    1.3815   -1.7823   29.4892 H   0  0  0  0  0  0  0  0  0  0  0  0
    3.2404   -4.6966   31.4109 H   0  0  0  0  0  0  0  0  0  0  0  0
    4.0418   -3.2025   30.9978 H   0  0  0  0  0  0  0  0  0  0  0  0
    2.7942   -3.7569   33.7092 H   0  0  0  0  0  0  0  0  0  0  0  0
    3.4435   -2.1905   33.1860 H   0  0  0  0  0  0  0  0  0  0  0  0
    4.4941   -3.6080   33.2810 H   0  0  0  0  0  0  0  0  0  0  0  0
  1  2  1  0
  2  3  1  0
  3  4  1  0
  4  5  2  0
  4  6  1  0
  6  7  2  3
  7  8  1  0
  8  9  1  0
  9 10  1  0
 10 11  1  0
 11 12  2  0
 11 13  1  0
 13 14  1  0
 13 15  1  0
 15 16  1  0
 16 17  2  0
 17 18  1  0
 18 19  2  0
 19 20  1  0
 20 21  2  0
 10 22  1  0
 22 23  1  0
 23 24  1  0
 24 25  1  0
 25 26  1  0
 26 27  1  0
 27 28  1  0
 28 29  1  0
 23  8  1  0
 21 16  1  0
 27 23  1  0
  1 30  1  0
  1 31  1  0
  1 32  1  0
  2 33  1  0
  2 34  1  0
  6 35  1  0
  7 36  1  0
  8 37  1  0
  9 38  1  0
  9 39  1  0
 10 40  1  0
 14 41  1  0
 14 42  1  0
 14 43  1  0
 15 44  1  0
 15 45  1  0
 17 46  1  0
 18 47  1  0
 19 48  1  0
 20 49  1  0
 21 50  1  0
 22 51  1  0
 22 52  1  0
 24 53  1  0
 25 54  1  0
 26 55  1  0
 26 56  1  0
 28 57  1  0
 28 58  1  0
 29 59  1  0
 29 60  1  0
 29 61  1  0
M  END
>  <Energy>  (918) 
224.53879116557306

>  <compound_id>  (918) 
3777

>  <target_id>  (918) 
1

>  <reference_id>  (918) 
131

>  <inspiration_ids>  (918) 
[131, 134]

>  <energy_score>  (918) 
126.42061787399041

>  <distance_score>  (918) 
3.4633673010386175

>  <path>  (918) 
/opt/xchem-fragalysis-2/maxwin/BulkDock/SCRATCH/505734/C3777-P131/C3777-P131.minimised.mol

>  <scratch_subdir>  (918) 
/opt/xchem-fragalysis-2/maxwin/BulkDock/SCRATCH/505734/C3777-P131

>  <fragmenstein_runtime>  (918) 
12.33972454071045

>  <fragmenstein_outcome>  (918) 
too moved

>  <fragmenstein_mode>  (918) 
expansion

>  <fragmenstein_error>  (918) 


$$$$
C3777-P134
     RDKit          3D

 61 63  0  0  0  0  0  0  0  0999 V2000
   -2.6043  -12.5352   28.9465 C   0  0  0  0  0  0  0  0  0  0  0  0
   -2.0468  -11.2103   29.3136 C   0  0  0  0  0  0  0  0  0  0  0  0
   -1.2493  -10.3894   30.3032 O   0  0  0  0  0  0  0  0  0  0  0  0
   -0.5741   -9.2339   29.9170 C   0  0  0  0  0  0  0  0  0  0  0  0
   -0.0860   -9.0364   28.8099 O   0  0  0  0  0  0  0  0  0  0  0  0
   -0.5500   -8.1496   30.9944 C   0  0  0  0  0  0  0  0  0  0  0  0
    0.1761   -7.0464   30.7108 C   0  0  0  0  0  0  0  0  0  0  0  0
    0.7553   -5.8274   31.4361 C   0  0  0  0  0  0  0  0  0  0  0  0
    0.5532   -5.6278   32.9518 C   0  0  0  0  0  0  0  0  0  0  0  0
   -0.4899   -4.5238   33.1143 C   0  0  0  0  0  0  0  0  0  0  0  0
   -0.3174   -3.1909   33.8883 C   0  0  0  0  0  0  0  0  0  0  0  0
   -1.2671   -2.8008   34.5178 O   0  0  0  0  0  0  0  0  0  0  0  0
    0.9343   -2.5831   33.6453 N   0  0  0  0  0  0  0  0  0  0  0  0
    1.9206   -2.9842   34.7089 C   0  0  0  0  0  0  0  0  0  0  0  0
    1.4489   -1.2050   33.9960 C   0  0  0  0  0  0  0  0  0  0  0  0
    1.0243   -0.2786   32.8296 C   0  0  0  0  0  0  0  0  0  0  0  0
   -0.2820   -0.2997   32.3109 C   0  0  0  0  0  0  0  0  0  0  0  0
   -0.6054    0.4061   31.1515 C   0  0  0  0  0  0  0  0  0  0  0  0
    0.3464    1.2153   30.5367 C   0  0  0  0  0  0  0  0  0  0  0  0
    1.6241    1.3101   31.0798 C   0  0  0  0  0  0  0  0  0  0  0  0
    1.9635    0.5641   32.2134 C   0  0  0  0  0  0  0  0  0  0  0  0
   -0.8419   -4.1151   31.6705 C   0  0  0  0  0  0  0  0  0  0  0  0
    0.3891   -4.4435   30.7963 C   0  0  0  0  0  0  0  0  0  0  0  0
    0.0411   -4.4724   29.3787 N   0  0  0  0  0  0  0  0  0  0  0  0
   -0.0834   -3.0874   29.0560 N   0  0  0  0  0  0  0  0  0  0  0  0
    1.0988   -2.5176   29.6636 C   0  0  0  0  0  0  0  0  0  0  0  0
    1.3776   -3.3442   30.8522 N   0  0  0  0  0  0  0  0  0  0  0  0
    2.7838   -3.7327   30.8767 C   0  0  0  0  0  0  0  0  0  0  0  0
    3.7553   -2.5557   30.9683 C   0  0  0  0  0  0  0  0  0  0  0  0
   -2.0554  -13.4508   29.1119 H   0  0  0  0  0  0  0  0  0  0  0  0
   -3.6087  -12.6268   29.3395 H   0  0  0  0  0  0  0  0  0  0  0  0
   -2.8207  -12.4833   27.8624 H   0  0  0  0  0  0  0  0  0  0  0  0
   -1.7951  -10.8399   28.3367 H   0  0  0  0  0  0  0  0  0  0  0  0
   -3.0068  -11.0236   29.6863 H   0  0  0  0  0  0  0  0  0  0  0  0
   -0.9987   -8.3692   31.9534 H   0  0  0  0  0  0  0  0  0  0  0  0
    0.5911   -7.0211   29.7067 H   0  0  0  0  0  0  0  0  0  0  0  0
    1.8245   -5.9918   31.3038 H   0  0  0  0  0  0  0  0  0  0  0  0
    1.5072   -5.3676   33.4111 H   0  0  0  0  0  0  0  0  0  0  0  0
    0.2213   -6.5553   33.4321 H   0  0  0  0  0  0  0  0  0  0  0  0
   -1.3620   -5.0041   33.5656 H   0  0  0  0  0  0  0  0  0  0  0  0
    2.9593   -2.9566   34.3483 H   0  0  0  0  0  0  0  0  0  0  0  0
    1.7461   -4.0428   34.9358 H   0  0  0  0  0  0  0  0  0  0  0  0
    1.7732   -2.5218   35.6998 H   0  0  0  0  0  0  0  0  0  0  0  0
    2.5423   -1.0746   34.0519 H   0  0  0  0  0  0  0  0  0  0  0  0
    0.9384   -0.8073   34.8867 H   0  0  0  0  0  0  0  0  0  0  0  0
   -1.0520   -0.9129   32.7697 H   0  0  0  0  0  0  0  0  0  0  0  0
   -1.5988    0.3091   30.7203 H   0  0  0  0  0  0  0  0  0  0  0  0
    0.0900    1.7715   29.6382 H   0  0  0  0  0  0  0  0  0  0  0  0
    2.3656    1.9486   30.6065 H   0  0  0  0  0  0  0  0  0  0  0  0
    2.9815    0.6261   32.5902 H   0  0  0  0  0  0  0  0  0  0  0  0
   -1.6759   -4.7380   31.3588 H   0  0  0  0  0  0  0  0  0  0  0  0
   -1.1839   -3.0786   31.5755 H   0  0  0  0  0  0  0  0  0  0  0  0
   -0.8299   -4.9688   29.1984 H   0  0  0  0  0  0  0  0  0  0  0  0
   -0.1289   -2.8761   28.0581 H   0  0  0  0  0  0  0  0  0  0  0  0
    1.9081   -2.5554   28.9226 H   0  0  0  0  0  0  0  0  0  0  0  0
    0.9454   -1.4759   29.9286 H   0  0  0  0  0  0  0  0  0  0  0  0
    2.9791   -4.3260   31.7756 H   0  0  0  0  0  0  0  0  0  0  0  0
    3.0450   -4.3490   30.0072 H   0  0  0  0  0  0  0  0  0  0  0  0
    3.5699   -1.9637   31.8682 H   0  0  0  0  0  0  0  0  0  0  0  0
    3.6994   -1.8930   30.1002 H   0  0  0  0  0  0  0  0  0  0  0  0
    4.7828   -2.9304   31.0285 H   0  0  0  0  0  0  0  0  0  0  0  0
  1  2  1  0
  2  3  1  0
  3  4  1  0
  4  5  2  0
  4  6  1  0
  6  7  2  3
  7  8  1  0
  8  9  1  0
  9 10  1  0
 10 11  1  0
 11 12  2  0
 11 13  1  0
 13 14  1  0
 13 15  1  0
 15 16  1  0
 16 17  2  0
 17 18  1  0
 18 19  2  0
 19 20  1  0
 20 21  2  0
 10 22  1  0
 22 23  1  0
 23 24  1  0
 24 25  1  0
 25 26  1  0
 26 27  1  0
 27 28  1  0
 28 29  1  0
 23  8  1  0
 21 16  1  0
 27 23  1  0
  1 30  1  0
  1 31  1  0
  1 32  1  0
  2 33  1  0
  2 34  1  0
  6 35  1  0
  7 36  1  0
  8 37  1  0
  9 38  1  0
  9 39  1  0
 10 40  1  0
 14 41  1  0
 14 42  1  0
 14 43  1  0
 15 44  1  0
 15 45  1  0
 17 46  1  0
 18 47  1  0
 19 48  1  0
 20 49  1  0
 21 50  1  0
 22 51  1  0
 22 52  1  0
 24 53  1  0
 25 54  1  0
 26 55  1  0
 26 56  1  0
 28 57  1  0
 28 58  1  0
 29 59  1  0
 29 60  1  0
 29 61  1  0
M  END
>  <Energy>  (919) 
187.88799679830964

>  <compound_id>  (919) 
3777

>  <target_id>  (919) 
1

>  <reference_id>  (919) 
134

>  <inspiration_ids>  (919) 
[131, 134]

>  <energy_score>  (919) 
89.76982350672796

>  <distance_score>  (919) 
3.114907356115149

>  <path>  (919) 
/opt/xchem-fragalysis-2/maxwin/BulkDock/SCRATCH/505734/C3777-P134/C3777-P134.minimised.mol

>  <scratch_subdir>  (919) 
/opt/xchem-fragalysis-2/maxwin/BulkDock/SCRATCH/505734/C3777-P134

>  <fragmenstein_runtime>  (919) 
11.421778440475464

>  <fragmenstein_outcome>  (919) 
too moved

>  <fragmenstein_mode>  (919) 
expansion

>  <fragmenstein_error>  (919) 


$$$$
C3777-P131
     RDKit          2D

  0  0  0  0  0  0  0  0  0  0999 V2000
M  END
>  <compound_id>  (920) 
3777

>  <target_id>  (920) 
1

>  <reference_id>  (920) 
131

>  <inspiration_ids>  (920) 
[131, 135]

>  <energy_score>  (920) 
nan

>  <distance_score>  (920) 
nan

>  <path>  (920) 
/opt/xchem-fragalysis-2/maxwin/BulkDock/SCRATCH/505734/C3777-P131/C3777-P131.minimised.mol

>  <scratch_subdir>  (920) 
/opt/xchem-fragalysis-2/maxwin/BulkDock/SCRATCH/505734/C3777-P131

>  <fragmenstein_runtime>  (920) 
0.6159758567810059

>  <fragmenstein_outcome>  (920) 
crashed

>  <fragmenstein_mode>  (920) 
expansion

>  <fragmenstein_error>  (920) 
PoisonError: None has poison atoms [24, 25, 26, 27, 28, 24, 25, 26, 27, 28, 24, 25, 26, 27, 28, 24, 25, 26, 27, 28, 12, 20, 10, 11, 9, 12, 20, 10, 11, 9, 12, 20, 10, 11, 9, 12, 20, 10, 11, 9]

$$$$
C3800-P131
     RDKit          3D

 64 68  0  0  0  0  0  0  0  0999 V2000
    2.1510   -1.6619   28.0162 C   0  0  0  0  0  0  0  0  0  0  0  0
    2.2148   -1.7312   29.5176 C   0  0  0  0  0  0  0  0  0  0  0  0
    1.1859   -2.9908   30.2467 S   0  0  0  0  0  0  0  0  0  0  0  0
    1.2566   -4.1707   29.4120 O   0  0  0  0  0  0  0  0  0  0  0  0
    1.4682   -2.9364   31.7752 N   0  0  0  0  0  0  0  0  0  0  0  0
    2.8347   -2.7407   32.3001 N   0  0  0  0  0  0  0  0  0  0  0  0
    3.6274   -3.6111   33.0884 C   0  0  0  0  0  0  0  0  0  0  0  0
    4.9351   -3.1663   33.3714 C   0  0  0  0  0  0  0  0  0  0  0  0
    5.8626   -3.9374   34.0864 C   0  0  0  0  0  0  0  0  0  0  0  0
    7.0679   -3.3057   34.2561 O   0  0  0  0  0  0  0  0  0  0  0  0
    8.2212   -4.1376   34.3204 C   0  0  0  0  0  0  0  0  0  0  0  0
    5.4871   -5.1902   34.5792 C   0  0  0  0  0  0  0  0  0  0  0  0
    6.3932   -5.8820   35.3344 O   0  0  0  0  0  0  0  0  0  0  0  0
    5.9602   -7.0684   35.9869 C   0  0  0  0  0  0  0  0  0  0  0  0
    4.2040   -5.6622   34.2799 C   0  0  0  0  0  0  0  0  0  0  0  0
    3.2778   -4.8990   33.5268 C   0  0  0  0  0  0  0  0  0  0  0  0
    1.9782   -5.5467   33.2881 C   0  0  0  0  0  0  0  0  0  0  0  0
    1.5000   -5.9735   31.9673 C   0  0  0  0  0  0  0  0  0  0  0  0
    0.3112   -6.5652   31.7678 C   0  0  0  0  0  0  0  0  0  0  0  0
   -0.4792   -6.8663   32.8939 C   0  0  0  0  0  0  0  0  0  0  0  0
   -1.6177   -7.4998   33.0356 N   0  0  0  0  0  0  0  0  0  0  0  0
   -1.8833   -7.5789   34.3880 N   0  0  0  0  0  0  0  0  0  0  0  0
   -0.8828   -7.0302   35.0315 C   0  0  0  0  0  0  0  0  0  0  0  0
   -0.6331   -7.0360   36.3635 N   0  0  0  0  0  0  0  0  0  0  0  0
    0.0077   -6.5016   34.1353 N   0  0  0  0  0  0  0  0  0  0  0  0
    1.1977   -5.8252   34.3471 C   0  0  0  0  0  0  0  0  0  0  0  0
   -0.4429   -2.5987   30.2862 N   0  0  0  0  0  0  0  0  0  0  0  0
   -1.2272   -2.0165   29.2231 C   0  0  0  0  0  0  0  0  0  0  0  0
   -1.0534   -0.5289   28.9994 C   0  0  0  0  0  0  0  0  0  0  0  0
   -0.4114    0.3324   29.9165 C   0  0  0  0  0  0  0  0  0  0  0  0
   -0.1754    1.6749   29.6019 C   0  0  0  0  0  0  0  0  0  0  0  0
   -0.6923    2.1619   28.4225 C   0  0  0  0  0  0  0  0  0  0  0  0
   -1.3786    1.3569   27.5509 C   0  0  0  0  0  0  0  0  0  0  0  0
   -1.5551    0.0138   27.8008 C   0  0  0  0  0  0  0  0  0  0  0  0
   -1.8249    2.0359   26.4603 O   0  0  0  0  0  0  0  0  0  0  0  0
   -1.4884    3.3883   26.8393 C   0  0  0  0  0  0  0  0  0  0  0  0
   -0.6235    3.4497   27.9938 O   0  0  0  0  0  0  0  0  0  0  0  0
    1.1410   -1.4528   27.6709 H   0  0  0  0  0  0  0  0  0  0  0  0
    2.4795   -2.6067   27.5731 H   0  0  0  0  0  0  0  0  0  0  0  0
    2.8077   -0.8701   27.6424 H   0  0  0  0  0  0  0  0  0  0  0  0
    3.2460   -1.9848   29.7898 H   0  0  0  0  0  0  0  0  0  0  0  0
    1.9916   -0.7713   29.9832 H   0  0  0  0  0  0  0  0  0  0  0  0
    3.1010   -1.7657   32.4502 H   0  0  0  0  0  0  0  0  0  0  0  0
    5.2632   -2.1903   33.0161 H   0  0  0  0  0  0  0  0  0  0  0  0
    8.3922   -4.4777   35.3458 H   0  0  0  0  0  0  0  0  0  0  0  0
    8.1678   -4.9784   33.6202 H   0  0  0  0  0  0  0  0  0  0  0  0
    9.0833   -3.5274   34.0330 H   0  0  0  0  0  0  0  0  0  0  0  0
    5.1092   -6.8717   36.6475 H   0  0  0  0  0  0  0  0  0  0  0  0
    6.7864   -7.4285   36.6074 H   0  0  0  0  0  0  0  0  0  0  0  0
    5.7257   -7.8521   35.2593 H   0  0  0  0  0  0  0  0  0  0  0  0
    3.8913   -6.6416   34.6299 H   0  0  0  0  0  0  0  0  0  0  0  0
    2.1365   -5.7457   31.1191 H   0  0  0  0  0  0  0  0  0  0  0  0
   -0.0343   -6.8329   30.7770 H   0  0  0  0  0  0  0  0  0  0  0  0
   -1.4655   -6.7575   36.8807 H   0  0  0  0  0  0  0  0  0  0  0  0
   -0.5307   -8.0141   36.6658 H   0  0  0  0  0  0  0  0  0  0  0  0
    1.4422   -5.5815   35.3739 H   0  0  0  0  0  0  0  0  0  0  0  0
   -0.6427   -2.2069   31.1957 H   0  0  0  0  0  0  0  0  0  0  0  0
   -1.0062   -2.5524   28.2952 H   0  0  0  0  0  0  0  0  0  0  0  0
   -2.2825   -2.1952   29.4479 H   0  0  0  0  0  0  0  0  0  0  0  0
   -0.0552   -0.0347   30.8753 H   0  0  0  0  0  0  0  0  0  0  0  0
    0.3518    2.3331   30.2839 H   0  0  0  0  0  0  0  0  0  0  0  0
   -2.0688   -0.6100   27.0744 H   0  0  0  0  0  0  0  0  0  0  0  0
   -2.4119    3.9405   27.0536 H   0  0  0  0  0  0  0  0  0  0  0  0
   -0.9778    3.8674   25.9968 H   0  0  0  0  0  0  0  0  0  0  0  0
  1  2  1  0
  2  3  1  0
  3  4  2  0
  3  5  2  0
  5  6  1  0
  6  7  1  0
  7  8  2  0
  8  9  1  0
  9 10  1  0
 10 11  1  0
  9 12  2  0
 12 13  1  0
 13 14  1  0
 12 15  1  0
 15 16  2  0
 16 17  1  0
 17 18  1  0
 18 19  2  0
 19 20  1  0
 20 21  2  0
 21 22  1  0
 22 23  2  0
 23 24  1  0
 23 25  1  0
 25 26  1  0
  3 27  1  0
 27 28  1  0
 28 29  1  0
 29 30  2  0
 30 31  1  0
 31 32  2  0
 32 33  1  0
 33 34  2  0
 33 35  1  0
 35 36  1  0
 36 37  1  0
 16  7  1  0
 26 17  2  0
 34 29  1  0
 25 20  1  0
 37 32  1  0
  1 38  1  0
  1 39  1  0
  1 40  1  0
  2 41  1  0
  2 42  1  0
  6 43  1  0
  8 44  1  0
 11 45  1  0
 11 46  1  0
 11 47  1  0
 14 48  1  0
 14 49  1  0
 14 50  1  0
 15 51  1  0
 18 52  1  0
 19 53  1  0
 24 54  1  0
 24 55  1  0
 26 56  1  0
 27 57  1  0
 28 58  1  0
 28 59  1  0
 30 60  1  0
 31 61  1  0
 34 62  1  0
 36 63  1  0
 36 64  1  0
M  END
>  <Energy>  (921) 
58.95368618950981

>  <compound_id>  (921) 
3800

>  <target_id>  (921) 
1

>  <reference_id>  (921) 
131

>  <inspiration_ids>  (921) 
[131, 140]

>  <energy_score>  (921) 
-63.22707248927725

>  <distance_score>  (921) 
1.4229151314804735

>  <path>  (921) 
/opt/xchem-fragalysis-2/maxwin/BulkDock/SCRATCH/505734/C3800-P131/C3800-P131.minimised.mol

>  <scratch_subdir>  (921) 
/opt/xchem-fragalysis-2/maxwin/BulkDock/SCRATCH/505734/C3800-P131

>  <fragmenstein_runtime>  (921) 
28.11648464202881

>  <fragmenstein_outcome>  (921) 
too moved

>  <fragmenstein_mode>  (921) 
expansion

>  <fragmenstein_error>  (921) 


$$$$
C3800-P140
     RDKit          3D

 64 68  0  0  0  0  0  0  0  0999 V2000
    3.3508   -2.2431   28.3358 C   0  0  0  0  0  0  0  0  0  0  0  0
    2.0063   -1.8052   28.8879 C   0  0  0  0  0  0  0  0  0  0  0  0
    1.2594   -3.0481   29.9219 S   0  0  0  0  0  0  0  0  0  0  0  0
    1.1938   -4.2824   29.1689 O   0  0  0  0  0  0  0  0  0  0  0  0
    1.8109   -2.9089   31.3608 N   0  0  0  0  0  0  0  0  0  0  0  0
    3.2517   -2.9696   31.6539 N   0  0  0  0  0  0  0  0  0  0  0  0
    3.8792   -3.7002   32.7004 C   0  0  0  0  0  0  0  0  0  0  0  0
    5.2396   -3.3899   32.9328 C   0  0  0  0  0  0  0  0  0  0  0  0
    6.0059   -4.0788   33.8750 C   0  0  0  0  0  0  0  0  0  0  0  0
    7.3180   -3.7096   34.0007 O   0  0  0  0  0  0  0  0  0  0  0  0
    8.1657   -4.6686   33.3626 C   0  0  0  0  0  0  0  0  0  0  0  0
    5.4225   -5.0749   34.6479 C   0  0  0  0  0  0  0  0  0  0  0  0
    6.0673   -5.7939   35.6163 O   0  0  0  0  0  0  0  0  0  0  0  0
    6.6806   -4.9670   36.6065 C   0  0  0  0  0  0  0  0  0  0  0  0
    4.1019   -5.4420   34.3944 C   0  0  0  0  0  0  0  0  0  0  0  0
    3.3127   -4.7720   33.4263 C   0  0  0  0  0  0  0  0  0  0  0  0
    1.9516   -5.3221   33.2467 C   0  0  0  0  0  0  0  0  0  0  0  0
    1.4315   -5.8715   31.9866 C   0  0  0  0  0  0  0  0  0  0  0  0
    0.2422   -6.4867   31.8799 C   0  0  0  0  0  0  0  0  0  0  0  0
   -0.5344   -6.6444   33.0457 C   0  0  0  0  0  0  0  0  0  0  0  0
   -1.6581   -7.2747   33.2856 N   0  0  0  0  0  0  0  0  0  0  0  0
   -1.9413   -7.1266   34.6293 N   0  0  0  0  0  0  0  0  0  0  0  0
   -0.9867   -6.4072   35.1730 C   0  0  0  0  0  0  0  0  0  0  0  0
   -0.8630   -6.0155   36.4570 N   0  0  0  0  0  0  0  0  0  0  0  0
   -0.0560   -6.0845   34.2158 N   0  0  0  0  0  0  0  0  0  0  0  0
    1.1560   -5.4202   34.3279 C   0  0  0  0  0  0  0  0  0  0  0  0
   -0.3729   -2.7077   30.1991 N   0  0  0  0  0  0  0  0  0  0  0  0
   -1.2275   -2.1027   29.1928 C   0  0  0  0  0  0  0  0  0  0  0  0
   -1.0308   -0.6127   29.0153 C   0  0  0  0  0  0  0  0  0  0  0  0
   -0.4331    0.1971   30.0095 C   0  0  0  0  0  0  0  0  0  0  0  0
   -0.1838    1.5524   29.7805 C   0  0  0  0  0  0  0  0  0  0  0  0
   -0.6214    2.0942   28.5919 C   0  0  0  0  0  0  0  0  0  0  0  0
   -1.2598    1.3371   27.6433 C   0  0  0  0  0  0  0  0  0  0  0  0
   -1.4613   -0.0148   27.8177 C   0  0  0  0  0  0  0  0  0  0  0  0
   -1.6447    2.0730   26.5664 O   0  0  0  0  0  0  0  0  0  0  0  0
   -1.3129    3.4028   27.0227 C   0  0  0  0  0  0  0  0  0  0  0  0
   -0.5207    3.4007   28.2301 O   0  0  0  0  0  0  0  0  0  0  0  0
    3.2558   -3.1585   27.7431 H   0  0  0  0  0  0  0  0  0  0  0  0
    4.0736   -2.4363   29.1324 H   0  0  0  0  0  0  0  0  0  0  0  0
    3.7641   -1.4629   27.6890 H   0  0  0  0  0  0  0  0  0  0  0  0
    2.1183   -0.8896   29.4737 H   0  0  0  0  0  0  0  0  0  0  0  0
    1.3311   -1.6168   28.0533 H   0  0  0  0  0  0  0  0  0  0  0  0
    3.7266   -2.0728   31.5259 H   0  0  0  0  0  0  0  0  0  0  0  0
    5.7284   -2.6047   32.3593 H   0  0  0  0  0  0  0  0  0  0  0  0
    9.1897   -4.2854   33.4014 H   0  0  0  0  0  0  0  0  0  0  0  0
    8.1462   -5.6316   33.8828 H   0  0  0  0  0  0  0  0  0  0  0  0
    7.8927   -4.7997   32.3093 H   0  0  0  0  0  0  0  0  0  0  0  0
    6.1088   -4.0525   36.8027 H   0  0  0  0  0  0  0  0  0  0  0  0
    7.7085   -4.7265   36.3215 H   0  0  0  0  0  0  0  0  0  0  0  0
    6.7212   -5.5410   37.5374 H   0  0  0  0  0  0  0  0  0  0  0  0
    3.6903   -6.2699   34.9698 H   0  0  0  0  0  0  0  0  0  0  0  0
    2.0490   -5.7351   31.1057 H   0  0  0  0  0  0  0  0  0  0  0  0
   -0.1173   -6.8769   30.9356 H   0  0  0  0  0  0  0  0  0  0  0  0
   -0.3591   -5.1597   36.6666 H   0  0  0  0  0  0  0  0  0  0  0  0
   -1.7084   -6.0756   37.0150 H   0  0  0  0  0  0  0  0  0  0  0  0
    1.4321   -5.0600   35.3104 H   0  0  0  0  0  0  0  0  0  0  0  0
   -0.7510   -3.6139   30.4425 H   0  0  0  0  0  0  0  0  0  0  0  0
   -1.0827   -2.6187   28.2396 H   0  0  0  0  0  0  0  0  0  0  0  0
   -2.2570   -2.2684   29.5057 H   0  0  0  0  0  0  0  0  0  0  0  0
   -0.1247   -0.2361   30.9601 H   0  0  0  0  0  0  0  0  0  0  0  0
    0.3053    2.1699   30.5251 H   0  0  0  0  0  0  0  0  0  0  0  0
   -1.9455   -0.5963   27.0386 H   0  0  0  0  0  0  0  0  0  0  0  0
   -2.2398    3.9608   27.2037 H   0  0  0  0  0  0  0  0  0  0  0  0
   -0.7441    3.9080   26.2346 H   0  0  0  0  0  0  0  0  0  0  0  0
  1  2  1  0
  2  3  1  0
  3  4  2  0
  3  5  2  0
  5  6  1  0
  6  7  1  0
  7  8  2  0
  8  9  1  0
  9 10  1  0
 10 11  1  0
  9 12  2  0
 12 13  1  0
 13 14  1  0
 12 15  1  0
 15 16  2  0
 16 17  1  0
 17 18  1  0
 18 19  2  0
 19 20  1  0
 20 21  2  0
 21 22  1  0
 22 23  2  0
 23 24  1  0
 23 25  1  0
 25 26  1  0
  3 27  1  0
 27 28  1  0
 28 29  1  0
 29 30  2  0
 30 31  1  0
 31 32  2  0
 32 33  1  0
 33 34  2  0
 33 35  1  0
 35 36  1  0
 36 37  1  0
 16  7  1  0
 26 17  2  0
 34 29  1  0
 25 20  1  0
 37 32  1  0
  1 38  1  0
  1 39  1  0
  1 40  1  0
  2 41  1  0
  2 42  1  0
  6 43  1  0
  8 44  1  0
 11 45  1  0
 11 46  1  0
 11 47  1  0
 14 48  1  0
 14 49  1  0
 14 50  1  0
 15 51  1  0
 18 52  1  0
 19 53  1  0
 24 54  1  0
 24 55  1  0
 26 56  1  0
 27 57  1  0
 28 58  1  0
 28 59  1  0
 30 60  1  0
 31 61  1  0
 34 62  1  0
 36 63  1  0
 36 64  1  0
M  END
>  <Energy>  (922) 
47.795149695695336

>  <compound_id>  (922) 
3800

>  <target_id>  (922) 
1

>  <reference_id>  (922) 
140

>  <inspiration_ids>  (922) 
[131, 140]

>  <energy_score>  (922) 
-74.38560898309339

>  <distance_score>  (922) 
1.4154459234300754

>  <path>  (922) 
/opt/xchem-fragalysis-2/maxwin/BulkDock/SCRATCH/505734/C3800-P140/C3800-P140.minimised.mol

>  <scratch_subdir>  (922) 
/opt/xchem-fragalysis-2/maxwin/BulkDock/SCRATCH/505734/C3800-P140

>  <fragmenstein_runtime>  (922) 
28.360799312591553

>  <fragmenstein_outcome>  (922) 
too moved

>  <fragmenstein_mode>  (922) 
expansion

>  <fragmenstein_error>  (922) 


$$$$
C108-P131
     RDKit          3D

 34 36  0  0  0  0  0  0  0  0999 V2000
    0.4932    3.5383   29.0839 C   0  0  0  0  0  0  0  0  0  0  0  0
   -0.4263    2.7145   28.3813 O   0  0  0  0  0  0  0  0  0  0  0  0
   -0.6514    1.4403   28.8244 C   0  0  0  0  0  0  0  0  0  0  0  0
   -0.0849    0.9395   30.0009 C   0  0  0  0  0  0  0  0  0  0  0  0
   -0.2755   -0.3889   30.3958 C   0  0  0  0  0  0  0  0  0  0  0  0
   -1.0088   -1.2840   29.6112 C   0  0  0  0  0  0  0  0  0  0  0  0
   -0.6877   -2.7304   29.8533 C   0  0  0  0  0  0  0  0  0  0  0  0
    0.3851   -3.2489   29.0009 C   0  0  0  0  0  0  0  0  0  0  0  0
    1.1435   -4.2965   29.3417 C   0  0  0  0  0  0  0  0  0  0  0  0
    0.8636   -5.0045   30.5239 C   0  0  0  0  0  0  0  0  0  0  0  0
    1.5179   -5.9607   31.1354 N   0  0  0  0  0  0  0  0  0  0  0  0
    0.7585   -6.3824   32.1819 N   0  0  0  0  0  0  0  0  0  0  0  0
   -0.3252   -5.6447   32.2148 C   0  0  0  0  0  0  0  0  0  0  0  0
   -1.3531   -5.8450   33.0436 N   0  0  0  0  0  0  0  0  0  0  0  0
   -0.2738   -4.6631   31.2346 N   0  0  0  0  0  0  0  0  0  0  0  0
   -1.0297   -3.5005   30.9334 C   0  0  0  0  0  0  0  0  0  0  0  0
   -1.6044   -0.7741   28.4378 C   0  0  0  0  0  0  0  0  0  0  0  0
   -1.4655    0.5919   28.0559 C   0  0  0  0  0  0  0  0  0  0  0  0
   -2.1274    0.9304   26.8969 O   0  0  0  0  0  0  0  0  0  0  0  0
   -2.2990    2.3082   26.5672 C   0  0  0  0  0  0  0  0  0  0  0  0
    1.4958    3.0983   29.0812 H   0  0  0  0  0  0  0  0  0  0  0  0
    0.1537    3.7365   30.1046 H   0  0  0  0  0  0  0  0  0  0  0  0
    0.5491    4.4978   28.5608 H   0  0  0  0  0  0  0  0  0  0  0  0
    0.5461    1.5565   30.6326 H   0  0  0  0  0  0  0  0  0  0  0  0
    0.2560   -0.7415   31.2788 H   0  0  0  0  0  0  0  0  0  0  0  0
    0.6098   -2.6949   28.0932 H   0  0  0  0  0  0  0  0  0  0  0  0
    1.9678   -4.6221   28.7185 H   0  0  0  0  0  0  0  0  0  0  0  0
   -1.1905   -6.5807   33.7315 H   0  0  0  0  0  0  0  0  0  0  0  0
   -1.7752   -5.0488   33.5294 H   0  0  0  0  0  0  0  0  0  0  0  0
   -1.7642   -3.1958   31.6663 H   0  0  0  0  0  0  0  0  0  0  0  0
   -2.1298   -1.4491   27.7616 H   0  0  0  0  0  0  0  0  0  0  0  0
   -1.3754    2.7232   26.1534 H   0  0  0  0  0  0  0  0  0  0  0  0
   -3.0586    2.3637   25.7821 H   0  0  0  0  0  0  0  0  0  0  0  0
   -2.6716    2.8896   27.4146 H   0  0  0  0  0  0  0  0  0  0  0  0
  1  2  1  0
  2  3  1  0
  3  4  2  0
  4  5  1  0
  5  6  2  0
  6  7  1  0
  7  8  1  0
  8  9  2  0
  9 10  1  0
 10 11  2  0
 11 12  1  0
 12 13  2  0
 13 14  1  0
 13 15  1  0
 15 16  1  0
  6 17  1  0
 17 18  2  0
 18 19  1  0
 19 20  1  0
 18  3  1  0
 16  7  2  0
 15 10  1  0
  1 21  1  0
  1 22  1  0
  1 23  1  0
  4 24  1  0
  5 25  1  0
  8 26  1  0
  9 27  1  0
 14 28  1  0
 14 29  1  0
 16 30  1  0
 17 31  1  0
 20 32  1  0
 20 33  1  0
 20 34  1  0
M  END
>  <Energy>  (923) 
83.951693038084841

>  <compound_id>  (923) 
108

>  <target_id>  (923) 
1

>  <reference_id>  (923) 
131

>  <inspiration_ids>  (923) 
[131, 141]

>  <energy_score>  (923) 
-24.0286648295766

>  <distance_score>  (923) 
2.47357656535799

>  <path>  (923) 
/opt/xchem-fragalysis-2/maxwin/BulkDock/SCRATCH/505734/C108-P131/C108-P131.minimised.mol

>  <scratch_subdir>  (923) 
/opt/xchem-fragalysis-2/maxwin/BulkDock/SCRATCH/505734/C108-P131

>  <fragmenstein_runtime>  (923) 
71.30880618095398

>  <fragmenstein_outcome>  (923) 
too moved

>  <fragmenstein_mode>  (923) 
expansion

>  <fragmenstein_error>  (923) 


$$$$
C108-P141
     RDKit          3D

 34 36  0  0  0  0  0  0  0  0999 V2000
    0.6691    3.1338   28.1774 C   0  0  0  0  0  0  0  0  0  0  0  0
    0.2722    2.1430   27.2271 O   0  0  0  0  0  0  0  0  0  0  0  0
   -0.0690    0.9608   27.8308 C   0  0  0  0  0  0  0  0  0  0  0  0
    0.9265    0.2463   28.5050 C   0  0  0  0  0  0  0  0  0  0  0  0
    0.6413   -0.9758   29.1186 C   0  0  0  0  0  0  0  0  0  0  0  0
   -0.6407   -1.5342   29.0561 C   0  0  0  0  0  0  0  0  0  0  0  0
   -0.9298   -2.6153   30.0541 C   0  0  0  0  0  0  0  0  0  0  0  0
   -1.4268   -2.2037   31.3735 C   0  0  0  0  0  0  0  0  0  0  0  0
   -1.2894   -2.9677   32.4713 C   0  0  0  0  0  0  0  0  0  0  0  0
   -0.7080   -4.2536   32.3635 C   0  0  0  0  0  0  0  0  0  0  0  0
   -0.3399   -5.1451   33.2550 N   0  0  0  0  0  0  0  0  0  0  0  0
    0.0684   -6.2719   32.5804 N   0  0  0  0  0  0  0  0  0  0  0  0
   -0.0851   -6.0524   31.2952 C   0  0  0  0  0  0  0  0  0  0  0  0
    0.0347   -6.9514   30.2965 N   0  0  0  0  0  0  0  0  0  0  0  0
   -0.4494   -4.7294   31.0925 N   0  0  0  0  0  0  0  0  0  0  0  0
   -0.5147   -3.9090   29.9469 C   0  0  0  0  0  0  0  0  0  0  0  0
   -1.6126   -0.8480   28.3031 C   0  0  0  0  0  0  0  0  0  0  0  0
   -1.3474    0.4096   27.6952 C   0  0  0  0  0  0  0  0  0  0  0  0
   -2.4141    0.9650   27.0309 O   0  0  0  0  0  0  0  0  0  0  0  0
   -2.3684    2.3413   26.6575 C   0  0  0  0  0  0  0  0  0  0  0  0
    1.7118    2.9863   28.4752 H   0  0  0  0  0  0  0  0  0  0  0  0
    0.0159    3.1423   29.0574 H   0  0  0  0  0  0  0  0  0  0  0  0
    0.5930    4.1109   27.6911 H   0  0  0  0  0  0  0  0  0  0  0  0
    1.9374    0.6398   28.5623 H   0  0  0  0  0  0  0  0  0  0  0  0
    1.4258   -1.4620   29.6955 H   0  0  0  0  0  0  0  0  0  0  0  0
   -1.8707   -1.2143   31.4528 H   0  0  0  0  0  0  0  0  0  0  0  0
   -1.6236   -2.6342   33.4482 H   0  0  0  0  0  0  0  0  0  0  0  0
   -0.5888   -6.8429   29.5028 H   0  0  0  0  0  0  0  0  0  0  0  0
    0.1074   -7.9221   30.6023 H   0  0  0  0  0  0  0  0  0  0  0  0
   -0.1005   -4.3138   29.0331 H   0  0  0  0  0  0  0  0  0  0  0  0
   -2.6040   -1.2779   28.2032 H   0  0  0  0  0  0  0  0  0  0  0  0
   -1.6792    2.4992   25.8236 H   0  0  0  0  0  0  0  0  0  0  0  0
   -3.3684    2.6155   26.3065 H   0  0  0  0  0  0  0  0  0  0  0  0
   -2.1400    2.9815   27.5146 H   0  0  0  0  0  0  0  0  0  0  0  0
  1  2  1  0
  2  3  1  0
  3  4  2  0
  4  5  1  0
  5  6  2  0
  6  7  1  0
  7  8  1  0
  8  9  2  0
  9 10  1  0
 10 11  2  0
 11 12  1  0
 12 13  2  0
 13 14  1  0
 13 15  1  0
 15 16  1  0
  6 17  1  0
 17 18  2  0
 18 19  1  0
 19 20  1  0
 18  3  1  0
 16  7  2  0
 15 10  1  0
  1 21  1  0
  1 22  1  0
  1 23  1  0
  4 24  1  0
  5 25  1  0
  8 26  1  0
  9 27  1  0
 14 28  1  0
 14 29  1  0
 16 30  1  0
 17 31  1  0
 20 32  1  0
 20 33  1  0
 20 34  1  0
M  END
>  <Energy>  (924) 
77.67507835972242

>  <compound_id>  (924) 
108

>  <target_id>  (924) 
1

>  <reference_id>  (924) 
141

>  <inspiration_ids>  (924) 
[131, 141]

>  <energy_score>  (924) 
-30.305279507937882

>  <distance_score>  (924) 
1.967692742210619

>  <path>  (924) 
/opt/xchem-fragalysis-2/maxwin/BulkDock/SCRATCH/505734/C108-P141/C108-P141.minimised.mol

>  <scratch_subdir>  (924) 
/opt/xchem-fragalysis-2/maxwin/BulkDock/SCRATCH/505734/C108-P141

>  <fragmenstein_runtime>  (924) 
64.93917775154114

>  <fragmenstein_outcome>  (924) 
too moved

>  <fragmenstein_mode>  (924) 
expansion

>  <fragmenstein_error>  (924) 


$$$$
C3801-P131
     RDKit          3D

 49 52  0  0  0  0  0  0  0  0999 V2000
    0.1977    3.0908   28.7685 C   0  0  0  0  0  0  0  0  0  0  0  0
   -0.8561    2.1631   28.5396 O   0  0  0  0  0  0  0  0  0  0  0  0
   -0.8539    0.9979   29.2551 C   0  0  0  0  0  0  0  0  0  0  0  0
   -0.2576    0.9211   30.4952 C   0  0  0  0  0  0  0  0  0  0  0  0
   -0.2513   -0.2851   31.1832 C   0  0  0  0  0  0  0  0  0  0  0  0
   -0.8221   -1.4792   30.6897 C   0  0  0  0  0  0  0  0  0  0  0  0
   -0.3285   -2.8311   31.2027 C   0  0  0  0  0  0  0  0  0  0  0  0
   -0.8985   -4.2599   30.9026 C   0  0  0  0  0  0  0  0  0  0  0  0
   -0.0317   -5.4885   31.5221 C   0  0  0  0  0  0  0  0  0  0  0  0
   -0.1256   -6.7381   30.6274 C   0  0  0  0  0  0  0  0  0  0  0  0
   -0.8836   -7.7840   31.4165 C   0  0  0  0  0  0  0  0  0  0  0  0
   -0.4617   -7.5021   32.7712 N   0  0  0  0  0  0  0  0  0  0  0  0
   -0.5234   -6.0466   32.8876 C   0  0  0  0  0  0  0  0  0  0  0  0
    1.3765   -4.9213   31.6753 C   0  0  0  0  0  0  0  0  0  0  0  0
    2.4587   -5.1526   30.9675 N   0  0  0  0  0  0  0  0  0  0  0  0
    3.2183   -4.0049   30.9631 N   0  0  0  0  0  0  0  0  0  0  0  0
    2.5772   -3.0925   31.6499 C   0  0  0  0  0  0  0  0  0  0  0  0
    2.7301   -1.7605   31.5817 N   0  0  0  0  0  0  0  0  0  0  0  0
    1.5126   -3.6822   32.3048 N   0  0  0  0  0  0  0  0  0  0  0  0
    0.2513   -2.9868   32.6183 C   0  0  0  0  0  0  0  0  0  0  0  0
    0.4859   -1.9305   33.5736 N   0  0  0  0  0  0  0  0  0  0  0  0
   -1.4843   -1.3692   29.4660 C   0  0  0  0  0  0  0  0  0  0  0  0
   -1.4952   -0.1457   28.7517 C   0  0  0  0  0  0  0  0  0  0  0  0
   -2.1187   -0.2541   27.5420 O   0  0  0  0  0  0  0  0  0  0  0  0
   -2.2790    0.9183   26.7674 C   0  0  0  0  0  0  0  0  0  0  0  0
    0.1806    3.8212   27.9539 H   0  0  0  0  0  0  0  0  0  0  0  0
    1.1763    2.5989   28.7552 H   0  0  0  0  0  0  0  0  0  0  0  0
    0.0446    3.6353   29.7047 H   0  0  0  0  0  0  0  0  0  0  0  0
    0.2442    1.7696   30.9469 H   0  0  0  0  0  0  0  0  0  0  0  0
    0.3417   -0.2661   32.0870 H   0  0  0  0  0  0  0  0  0  0  0  0
    0.5034   -2.8409   30.4758 H   0  0  0  0  0  0  0  0  0  0  0  0
   -1.9101   -4.2773   31.2789 H   0  0  0  0  0  0  0  0  0  0  0  0
   -0.9195   -4.3534   29.8106 H   0  0  0  0  0  0  0  0  0  0  0  0
    0.8629   -7.1159   30.3655 H   0  0  0  0  0  0  0  0  0  0  0  0
   -0.6411   -6.5444   29.6919 H   0  0  0  0  0  0  0  0  0  0  0  0
   -1.9637   -7.6495   31.3182 H   0  0  0  0  0  0  0  0  0  0  0  0
   -0.6395   -8.7991   31.0999 H   0  0  0  0  0  0  0  0  0  0  0  0
   -1.0664   -7.9657   33.4546 H   0  0  0  0  0  0  0  0  0  0  0  0
   -1.5508   -5.7443   33.0857 H   0  0  0  0  0  0  0  0  0  0  0  0
    0.0889   -5.7397   33.7418 H   0  0  0  0  0  0  0  0  0  0  0  0
    2.3893   -1.2036   32.3613 H   0  0  0  0  0  0  0  0  0  0  0  0
    3.6114   -1.4310   31.2008 H   0  0  0  0  0  0  0  0  0  0  0  0
   -0.3753   -3.6654   33.1981 H   0  0  0  0  0  0  0  0  0  0  0  0
    0.8638   -2.3316   34.4337 H   0  0  0  0  0  0  0  0  0  0  0  0
   -0.4153   -1.5286   33.8374 H   0  0  0  0  0  0  0  0  0  0  0  0
   -1.8974   -2.2459   28.9680 H   0  0  0  0  0  0  0  0  0  0  0  0
   -2.8238    0.6616   25.8652 H   0  0  0  0  0  0  0  0  0  0  0  0
   -1.3175    1.3194   26.4388 H   0  0  0  0  0  0  0  0  0  0  0  0
   -2.8773    1.6728   27.2884 H   0  0  0  0  0  0  0  0  0  0  0  0
  1  2  1  0
  2  3  1  0
  3  4  2  0
  4  5  1  0
  5  6  2  0
  6  7  1  0
  7  8  1  0
  8  9  1  0
  9 10  1  0
 10 11  1  0
 11 12  1  0
 12 13  1  0
  9 14  1  0
 14 15  2  0
 15 16  1  0
 16 17  2  0
 17 18  1  0
 17 19  1  0
 19 20  1  0
 20 21  1  0
  6 22  1  0
 22 23  2  0
 23 24  1  0
 24 25  1  0
 23  3  1  0
 20  7  1  0
 13  9  1  0
 19 14  1  0
  1 26  1  0
  1 27  1  0
  1 28  1  0
  4 29  1  0
  5 30  1  0
  7 31  1  0
  8 32  1  0
  8 33  1  0
 10 34  1  0
 10 35  1  0
 11 36  1  0
 11 37  1  0
 12 38  1  0
 13 39  1  0
 13 40  1  0
 18 41  1  0
 18 42  1  0
 20 43  1  0
 21 44  1  0
 21 45  1  0
 22 46  1  0
 25 47  1  0
 25 48  1  0
 25 49  1  0
M  END
>  <Energy>  (925) 
139.67003798587277

>  <compound_id>  (925) 
3801

>  <target_id>  (925) 
1

>  <reference_id>  (925) 
131

>  <inspiration_ids>  (925) 
[131, 142]

>  <energy_score>  (925) 
21.19944432726237

>  <distance_score>  (925) 
2.58250606737764

>  <path>  (925) 
/opt/xchem-fragalysis-2/maxwin/BulkDock/SCRATCH/505734/C3801-P131/C3801-P131.minimised.mol

>  <scratch_subdir>  (925) 
/opt/xchem-fragalysis-2/maxwin/BulkDock/SCRATCH/505734/C3801-P131

>  <fragmenstein_runtime>  (925) 
90.8139979839325

>  <fragmenstein_outcome>  (925) 
too moved

>  <fragmenstein_mode>  (925) 
expansion

>  <fragmenstein_error>  (925) 


$$$$
C3801-P142
     RDKit          3D

 49 52  0  0  0  0  0  0  0  0999 V2000
   -0.4773    3.1258   28.4362 C   0  0  0  0  0  0  0  0  0  0  0  0
    0.1285    2.1440   27.5954 O   0  0  0  0  0  0  0  0  0  0  0  0
    0.0618    0.8915   28.1463 C   0  0  0  0  0  0  0  0  0  0  0  0
    1.2468    0.3403   28.5618 C   0  0  0  0  0  0  0  0  0  0  0  0
    1.2266   -0.9314   29.1187 C   0  0  0  0  0  0  0  0  0  0  0  0
    0.0406   -1.7079   29.2702 C   0  0  0  0  0  0  0  0  0  0  0  0
    0.1026   -2.8575   30.2576 C   0  0  0  0  0  0  0  0  0  0  0  0
   -0.0953   -4.4048   30.1231 C   0  0  0  0  0  0  0  0  0  0  0  0
    0.1015   -5.1507   31.5422 C   0  0  0  0  0  0  0  0  0  0  0  0
    0.6725   -6.5478   31.3840 C   0  0  0  0  0  0  0  0  0  0  0  0
    0.0540   -7.4121   32.4738 C   0  0  0  0  0  0  0  0  0  0  0  0
   -0.8216   -6.5443   33.2117 N   0  0  0  0  0  0  0  0  0  0  0  0
   -1.1825   -5.5040   32.2826 C   0  0  0  0  0  0  0  0  0  0  0  0
    0.9672   -4.2277   32.3967 C   0  0  0  0  0  0  0  0  0  0  0  0
    2.2510   -4.3030   32.6768 N   0  0  0  0  0  0  0  0  0  0  0  0
    2.7218   -3.0186   32.8483 N   0  0  0  0  0  0  0  0  0  0  0  0
    1.7288   -2.1884   32.6514 C   0  0  0  0  0  0  0  0  0  0  0  0
    1.7863   -0.8843   32.3390 N   0  0  0  0  0  0  0  0  0  0  0  0
    0.5569   -2.9030   32.5244 N   0  0  0  0  0  0  0  0  0  0  0  0
   -0.5223   -2.4815   31.6244 C   0  0  0  0  0  0  0  0  0  0  0  0
   -0.9734   -1.1520   32.0034 N   0  0  0  0  0  0  0  0  0  0  0  0
   -1.1299   -1.1760   28.7493 C   0  0  0  0  0  0  0  0  0  0  0  0
   -1.1052    0.1267   28.2135 C   0  0  0  0  0  0  0  0  0  0  0  0
   -2.2891    0.7082   27.8968 O   0  0  0  0  0  0  0  0  0  0  0  0
   -2.4709    0.8274   26.4954 C   0  0  0  0  0  0  0  0  0  0  0  0
   -0.1739    4.1105   28.0679 H   0  0  0  0  0  0  0  0  0  0  0  0
   -0.1302    3.0345   29.4712 H   0  0  0  0  0  0  0  0  0  0  0  0
   -1.5683    3.0758   28.3860 H   0  0  0  0  0  0  0  0  0  0  0  0
    2.1754    0.8963   28.4891 H   0  0  0  0  0  0  0  0  0  0  0  0
    2.1746   -1.2999   29.5163 H   0  0  0  0  0  0  0  0  0  0  0  0
    1.1995   -2.8950   30.3407 H   0  0  0  0  0  0  0  0  0  0  0  0
    0.6551   -4.7781   29.4140 H   0  0  0  0  0  0  0  0  0  0  0  0
   -1.0616   -4.6002   29.6773 H   0  0  0  0  0  0  0  0  0  0  0  0
    0.4322   -6.9727   30.4029 H   0  0  0  0  0  0  0  0  0  0  0  0
    1.7507   -6.4946   31.5004 H   0  0  0  0  0  0  0  0  0  0  0  0
    0.8116   -7.7580   33.1724 H   0  0  0  0  0  0  0  0  0  0  0  0
   -0.4924   -8.2568   32.0438 H   0  0  0  0  0  0  0  0  0  0  0  0
   -1.6119   -7.0425   33.6180 H   0  0  0  0  0  0  0  0  0  0  0  0
   -1.6348   -4.6892   32.8394 H   0  0  0  0  0  0  0  0  0  0  0  0
   -1.8730   -5.9341   31.5712 H   0  0  0  0  0  0  0  0  0  0  0  0
    0.9118   -0.3574   32.3130 H   0  0  0  0  0  0  0  0  0  0  0  0
    2.5901   -0.3596   32.6643 H   0  0  0  0  0  0  0  0  0  0  0  0
   -1.4099   -3.0874   31.7914 H   0  0  0  0  0  0  0  0  0  0  0  0
   -1.5091   -1.2143   32.8687 H   0  0  0  0  0  0  0  0  0  0  0  0
   -1.5990   -0.7917   31.2832 H   0  0  0  0  0  0  0  0  0  0  0  0
   -2.0654   -1.7156   28.8070 H   0  0  0  0  0  0  0  0  0  0  0  0
   -2.4276   -0.1505   26.0199 H   0  0  0  0  0  0  0  0  0  0  0  0
   -1.7577    1.5257   26.0533 H   0  0  0  0  0  0  0  0  0  0  0  0
   -3.4633    1.2521   26.3176 H   0  0  0  0  0  0  0  0  0  0  0  0
  1  2  1  0
  2  3  1  0
  3  4  2  0
  4  5  1  0
  5  6  2  0
  6  7  1  0
  7  8  1  0
  8  9  1  0
  9 10  1  0
 10 11  1  0
 11 12  1  0
 12 13  1  0
  9 14  1  0
 14 15  2  0
 15 16  1  0
 16 17  2  0
 17 18  1  0
 17 19  1  0
 19 20  1  0
 20 21  1  0
  6 22  1  0
 22 23  2  0
 23 24  1  0
 24 25  1  0
 23  3  1  0
 20  7  1  0
 13  9  1  0
 19 14  1  0
  1 26  1  0
  1 27  1  0
  1 28  1  0
  4 29  1  0
  5 30  1  0
  7 31  1  0
  8 32  1  0
  8 33  1  0
 10 34  1  0
 10 35  1  0
 11 36  1  0
 11 37  1  0
 12 38  1  0
 13 39  1  0
 13 40  1  0
 18 41  1  0
 18 42  1  0
 20 43  1  0
 21 44  1  0
 21 45  1  0
 22 46  1  0
 25 47  1  0
 25 48  1  0
 25 49  1  0
M  END
>  <Energy>  (926) 
136.88643300844339

>  <compound_id>  (926) 
3801

>  <target_id>  (926) 
1

>  <reference_id>  (926) 
142

>  <inspiration_ids>  (926) 
[131, 142]

>  <energy_score>  (926) 
18.41583934983032

>  <distance_score>  (926) 
2.7073978532588368

>  <path>  (926) 
/opt/xchem-fragalysis-2/maxwin/BulkDock/SCRATCH/505734/C3801-P142/C3801-P142.minimised.mol

>  <scratch_subdir>  (926) 
/opt/xchem-fragalysis-2/maxwin/BulkDock/SCRATCH/505734/C3801-P142

>  <fragmenstein_runtime>  (926) 
85.38107204437256

>  <fragmenstein_outcome>  (926) 
too moved

>  <fragmenstein_mode>  (926) 
expansion

>  <fragmenstein_error>  (926) 


$$$$
C3803-P131
     RDKit          3D

 64 67  0  0  0  0  0  0  0  0999 V2000
   -0.6860    2.8353   28.3378 C   0  0  0  0  0  0  0  0  0  0  0  0
    0.0240    2.2888   29.4415 O   0  0  0  0  0  0  0  0  0  0  0  0
   -0.1982    0.9922   29.8118 C   0  0  0  0  0  0  0  0  0  0  0  0
    0.6860    0.5564   30.8013 C   0  0  0  0  0  0  0  0  0  0  0  0
    0.7081   -0.7653   31.2993 C   0  0  0  0  0  0  0  0  0  0  0  0
    1.7303   -1.2188   32.1439 N   0  0  0  0  0  0  0  0  0  0  0  0
    2.5718   -0.3503   32.9605 C   0  0  0  0  0  0  0  0  0  0  0  0
    4.0335   -0.4997   32.5273 C   0  0  0  0  0  0  0  0  0  0  0  0
    4.3530    0.1607   31.1873 C   0  0  0  0  0  0  0  0  0  0  0  0
    4.6800    1.9160   31.3770 S   0  0  0  0  0  0  0  0  0  0  0  0
    3.5367    2.5439   32.0014 O   0  0  0  0  0  0  0  0  0  0  0  0
    6.0019    2.0512   31.9525 O   0  0  0  0  0  0  0  0  0  0  0  0
    4.7556    2.4594   29.7797 N   0  0  0  0  0  0  0  0  0  0  0  0
    5.8835    2.0241   28.9409 C   0  0  0  0  0  0  0  0  0  0  0  0
    6.1969    3.1200   27.9248 C   0  0  0  0  0  0  0  0  0  0  0  0
    4.9403    3.8328   27.4168 C   0  0  0  0  0  0  0  0  0  0  0  0
    5.1031    4.1592   26.0379 O   0  0  0  0  0  0  0  0  0  0  0  0
    3.6982    2.9700   27.5838 C   0  0  0  0  0  0  0  0  0  0  0  0
    3.4695    2.6290   29.0538 C   0  0  0  0  0  0  0  0  0  0  0  0
   -0.2285   -1.6939   30.7768 C   0  0  0  0  0  0  0  0  0  0  0  0
   -0.1488   -3.1823   31.0457 C   0  0  0  0  0  0  0  0  0  0  0  0
    0.4442   -4.0602   30.0222 C   0  0  0  0  0  0  0  0  0  0  0  0
    0.5015   -5.3981   30.1418 C   0  0  0  0  0  0  0  0  0  0  0  0
   -0.0475   -6.0274   31.2787 C   0  0  0  0  0  0  0  0  0  0  0  0
   -0.2634   -7.2873   31.5808 N   0  0  0  0  0  0  0  0  0  0  0  0
   -0.6821   -7.3268   32.8884 N   0  0  0  0  0  0  0  0  0  0  0  0
   -0.7337   -6.0923   33.3419 C   0  0  0  0  0  0  0  0  0  0  0  0
   -0.9729   -5.6948   34.6117 N   0  0  0  0  0  0  0  0  0  0  0  0
   -0.4608   -5.2035   32.3123 N   0  0  0  0  0  0  0  0  0  0  0  0
   -0.5304   -3.7954   32.2004 C   0  0  0  0  0  0  0  0  0  0  0  0
   -1.1638   -1.2397   29.8252 C   0  0  0  0  0  0  0  0  0  0  0  0
   -1.1347    0.0843   29.3426 C   0  0  0  0  0  0  0  0  0  0  0  0
   -2.0529    0.4839   28.4227 O   0  0  0  0  0  0  0  0  0  0  0  0
   -1.8193   -0.1699   27.1849 C   0  0  0  0  0  0  0  0  0  0  0  0
   -0.3350    3.8630   28.2004 H   0  0  0  0  0  0  0  0  0  0  0  0
   -0.4587    2.2916   27.4165 H   0  0  0  0  0  0  0  0  0  0  0  0
   -1.7609    2.8861   28.5275 H   0  0  0  0  0  0  0  0  0  0  0  0
    1.4065    1.2856   31.1590 H   0  0  0  0  0  0  0  0  0  0  0  0
    1.5022   -2.0915   32.6129 H   0  0  0  0  0  0  0  0  0  0  0  0
    2.4927   -0.7062   33.9955 H   0  0  0  0  0  0  0  0  0  0  0  0
    2.2386    0.6880   32.9914 H   0  0  0  0  0  0  0  0  0  0  0  0
    4.2686   -1.5691   32.4497 H   0  0  0  0  0  0  0  0  0  0  0  0
    4.6817   -0.0913   33.3115 H   0  0  0  0  0  0  0  0  0  0  0  0
    3.5486    0.0231   30.4644 H   0  0  0  0  0  0  0  0  0  0  0  0
    5.2692   -0.2741   30.7736 H   0  0  0  0  0  0  0  0  0  0  0  0
    6.7811    1.8276   29.5352 H   0  0  0  0  0  0  0  0  0  0  0  0
    5.6204    1.0900   28.4304 H   0  0  0  0  0  0  0  0  0  0  0  0
    6.7777    2.6938   27.0981 H   0  0  0  0  0  0  0  0  0  0  0  0
    6.8499    3.8710   28.3881 H   0  0  0  0  0  0  0  0  0  0  0  0
    4.7983    4.7744   27.9618 H   0  0  0  0  0  0  0  0  0  0  0  0
    5.8079    4.8295   25.9875 H   0  0  0  0  0  0  0  0  0  0  0  0
    3.8101    2.0487   26.9967 H   0  0  0  0  0  0  0  0  0  0  0  0
    2.8153    3.4701   27.1678 H   0  0  0  0  0  0  0  0  0  0  0  0
    2.8677    1.7196   29.1141 H   0  0  0  0  0  0  0  0  0  0  0  0
    2.9146    3.4475   29.5260 H   0  0  0  0  0  0  0  0  0  0  0  0
    0.8695   -3.5777   29.1443 H   0  0  0  0  0  0  0  0  0  0  0  0
    0.9833   -6.0107   29.3938 H   0  0  0  0  0  0  0  0  0  0  0  0
   -1.1948   -6.4746   35.2290 H   0  0  0  0  0  0  0  0  0  0  0  0
   -1.6949   -4.9743   34.7168 H   0  0  0  0  0  0  0  0  0  0  0  0
   -0.9279   -3.2604   33.0544 H   0  0  0  0  0  0  0  0  0  0  0  0
   -1.8915   -1.9355   29.4105 H   0  0  0  0  0  0  0  0  0  0  0  0
   -2.2912    0.4214   26.3958 H   0  0  0  0  0  0  0  0  0  0  0  0
   -0.7474   -0.2164   26.9802 H   0  0  0  0  0  0  0  0  0  0  0  0
   -2.2661   -1.1673   27.1982 H   0  0  0  0  0  0  0  0  0  0  0  0
  1  2  1  0
  2  3  1  0
  3  4  2  0
  4  5  1  0
  5  6  1  0
  6  7  1  0
  7  8  1  0
  8  9  1  0
  9 10  1  0
 10 11  2  0
 10 12  2  0
 10 13  1  0
 13 14  1  0
 14 15  1  0
 15 16  1  0
 16 17  1  0
 16 18  1  0
 18 19  1  0
  5 20  2  0
 20 21  1  0
 21 22  1  0
 22 23  2  0
 23 24  1  0
 24 25  2  0
 25 26  1  0
 26 27  2  0
 27 28  1  0
 27 29  1  0
 29 30  1  0
 20 31  1  0
 31 32  2  0
 32 33  1  0
 33 34  1  0
 32  3  1  0
 19 13  1  0
 30 21  2  0
 29 24  1  0
  1 35  1  0
  1 36  1  0
  1 37  1  0
  4 38  1  0
  6 39  1  0
  7 40  1  0
  7 41  1  0
  8 42  1  0
  8 43  1  0
  9 44  1  0
  9 45  1  0
 14 46  1  0
 14 47  1  0
 15 48  1  0
 15 49  1  0
 16 50  1  0
 17 51  1  0
 18 52  1  0
 18 53  1  0
 19 54  1  0
 19 55  1  0
 22 56  1  0
 23 57  1  0
 28 58  1  0
 28 59  1  0
 30 60  1  0
 31 61  1  0
 34 62  1  0
 34 63  1  0
 34 64  1  0
M  END
>  <Energy>  (927) 
16.783117651462604

>  <compound_id>  (927) 
3803

>  <target_id>  (927) 
1

>  <reference_id>  (927) 
131

>  <inspiration_ids>  (927) 
[131, 145]

>  <energy_score>  (927) 
-83.25851073950099

>  <distance_score>  (927) 
2.123721233124028

>  <path>  (927) 
/opt/xchem-fragalysis-2/maxwin/BulkDock/SCRATCH/505734/C3803-P131/C3803-P131.minimised.mol

>  <scratch_subdir>  (927) 
/opt/xchem-fragalysis-2/maxwin/BulkDock/SCRATCH/505734/C3803-P131

>  <fragmenstein_runtime>  (927) 
11.596713066101074

>  <fragmenstein_outcome>  (927) 
too moved

>  <fragmenstein_mode>  (927) 
expansion

>  <fragmenstein_error>  (927) 


$$$$
C3803-P145
     RDKit          3D

 64 67  0  0  0  0  0  0  0  0999 V2000
   -0.1479    2.8008   28.3358 C   0  0  0  0  0  0  0  0  0  0  0  0
    0.2435    2.3615   29.6301 O   0  0  0  0  0  0  0  0  0  0  0  0
    0.0217    1.0553   29.9628 C   0  0  0  0  0  0  0  0  0  0  0  0
    0.8872    0.5827   30.9491 C   0  0  0  0  0  0  0  0  0  0  0  0
    0.8573   -0.7475   31.4338 C   0  0  0  0  0  0  0  0  0  0  0  0
    1.8710   -1.2190   32.2925 N   0  0  0  0  0  0  0  0  0  0  0  0
    2.3707   -0.3720   33.3767 C   0  0  0  0  0  0  0  0  0  0  0  0
    3.8487   -0.6985   33.6067 C   0  0  0  0  0  0  0  0  0  0  0  0
    4.7406   -0.3064   32.4280 C   0  0  0  0  0  0  0  0  0  0  0  0
    5.1745    1.4339   32.4643 S   0  0  0  0  0  0  0  0  0  0  0  0
    3.9683    2.2261   32.3716 O   0  0  0  0  0  0  0  0  0  0  0  0
    6.1070    1.6257   33.5552 O   0  0  0  0  0  0  0  0  0  0  0  0
    6.0277    1.6309   31.0173 N   0  0  0  0  0  0  0  0  0  0  0  0
    7.3248    0.9490   30.8725 C   0  0  0  0  0  0  0  0  0  0  0  0
    8.2140    1.7511   29.9260 C   0  0  0  0  0  0  0  0  0  0  0  0
    7.4372    2.3645   28.7578 C   0  0  0  0  0  0  0  0  0  0  0  0
    8.2251    2.2954   27.5684 O   0  0  0  0  0  0  0  0  0  0  0  0
    6.1102    1.6546   28.5276 C   0  0  0  0  0  0  0  0  0  0  0  0
    5.2276    1.7358   29.7698 C   0  0  0  0  0  0  0  0  0  0  0  0
   -0.0981   -1.6447   30.8953 C   0  0  0  0  0  0  0  0  0  0  0  0
   -0.1232   -3.1341   31.1772 C   0  0  0  0  0  0  0  0  0  0  0  0
    0.1233   -4.0792   30.0749 C   0  0  0  0  0  0  0  0  0  0  0  0
    0.0211   -5.4112   30.2148 C   0  0  0  0  0  0  0  0  0  0  0  0
   -0.3171   -5.9734   31.4593 C   0  0  0  0  0  0  0  0  0  0  0  0
   -0.5771   -7.2057   31.8291 N   0  0  0  0  0  0  0  0  0  0  0  0
   -0.7494   -7.1925   33.1921 N   0  0  0  0  0  0  0  0  0  0  0  0
   -0.6321   -5.9492   33.6103 C   0  0  0  0  0  0  0  0  0  0  0  0
   -0.7059   -5.4939   34.8826 N   0  0  0  0  0  0  0  0  0  0  0  0
   -0.4295   -5.1049   32.5282 N   0  0  0  0  0  0  0  0  0  0  0  0
   -0.3556   -3.6992   32.3946 C   0  0  0  0  0  0  0  0  0  0  0  0
   -1.0000   -1.1482   29.9320 C   0  0  0  0  0  0  0  0  0  0  0  0
   -0.9238    0.1765   29.4602 C   0  0  0  0  0  0  0  0  0  0  0  0
   -1.7987    0.6150   28.5179 O   0  0  0  0  0  0  0  0  0  0  0  0
   -1.6177   -0.1040   27.3043 C   0  0  0  0  0  0  0  0  0  0  0  0
    0.3238    3.7733   28.1631 H   0  0  0  0  0  0  0  0  0  0  0  0
    0.2103    2.1232   27.5546 H   0  0  0  0  0  0  0  0  0  0  0  0
   -1.2291    2.9530   28.2758 H   0  0  0  0  0  0  0  0  0  0  0  0
    1.6523    1.2730   31.2981 H   0  0  0  0  0  0  0  0  0  0  0  0
    1.6790   -2.1585   32.6280 H   0  0  0  0  0  0  0  0  0  0  0  0
    1.8076   -0.6168   34.2855 H   0  0  0  0  0  0  0  0  0  0  0  0
    2.2299    0.6965   33.2136 H   0  0  0  0  0  0  0  0  0  0  0  0
    3.9476   -1.7795   33.7691 H   0  0  0  0  0  0  0  0  0  0  0  0
    4.1891   -0.2068   34.5252 H   0  0  0  0  0  0  0  0  0  0  0  0
    4.2688   -0.5274   31.4684 H   0  0  0  0  0  0  0  0  0  0  0  0
    5.6848   -0.8575   32.4909 H   0  0  0  0  0  0  0  0  0  0  0  0
    7.8372    0.8488   31.8343 H   0  0  0  0  0  0  0  0  0  0  0  0
    7.1643   -0.0629   30.4818 H   0  0  0  0  0  0  0  0  0  0  0  0
    9.0334    1.1141   29.5711 H   0  0  0  0  0  0  0  0  0  0  0  0
    8.6926    2.5675   30.4824 H   0  0  0  0  0  0  0  0  0  0  0  0
    7.2452    3.4261   28.9570 H   0  0  0  0  0  0  0  0  0  0  0  0
    9.0407    2.8006   27.7382 H   0  0  0  0  0  0  0  0  0  0  0  0
    6.2968    0.6056   28.2618 H   0  0  0  0  0  0  0  0  0  0  0  0
    5.5836    2.0822   27.6668 H   0  0  0  0  0  0  0  0  0  0  0  0
    4.4655    0.9520   29.7227 H   0  0  0  0  0  0  0  0  0  0  0  0
    4.7177    2.7063   29.7780 H   0  0  0  0  0  0  0  0  0  0  0  0
    0.3806   -3.6578   29.1043 H   0  0  0  0  0  0  0  0  0  0  0  0
    0.1739   -6.0835   29.3915 H   0  0  0  0  0  0  0  0  0  0  0  0
   -0.9622   -6.2168   35.5515 H   0  0  0  0  0  0  0  0  0  0  0  0
   -1.3329   -4.6932   35.0026 H   0  0  0  0  0  0  0  0  0  0  0  0
   -0.5338   -3.1188   33.2922 H   0  0  0  0  0  0  0  0  0  0  0  0
   -1.7490   -1.8139   29.5097 H   0  0  0  0  0  0  0  0  0  0  0  0
   -2.0525    0.4927   26.4980 H   0  0  0  0  0  0  0  0  0  0  0  0
   -0.5532   -0.2458   27.1009 H   0  0  0  0  0  0  0  0  0  0  0  0
   -2.1373   -1.0649   27.3480 H   0  0  0  0  0  0  0  0  0  0  0  0
  1  2  1  0
  2  3  1  0
  3  4  2  0
  4  5  1  0
  5  6  1  0
  6  7  1  0
  7  8  1  0
  8  9  1  0
  9 10  1  0
 10 11  2  0
 10 12  2  0
 10 13  1  0
 13 14  1  0
 14 15  1  0
 15 16  1  0
 16 17  1  0
 16 18  1  0
 18 19  1  0
  5 20  2  0
 20 21  1  0
 21 22  1  0
 22 23  2  0
 23 24  1  0
 24 25  2  0
 25 26  1  0
 26 27  2  0
 27 28  1  0
 27 29  1  0
 29 30  1  0
 20 31  1  0
 31 32  2  0
 32 33  1  0
 33 34  1  0
 32  3  1  0
 19 13  1  0
 30 21  2  0
 29 24  1  0
  1 35  1  0
  1 36  1  0
  1 37  1  0
  4 38  1  0
  6 39  1  0
  7 40  1  0
  7 41  1  0
  8 42  1  0
  8 43  1  0
  9 44  1  0
  9 45  1  0
 14 46  1  0
 14 47  1  0
 15 48  1  0
 15 49  1  0
 16 50  1  0
 17 51  1  0
 18 52  1  0
 18 53  1  0
 19 54  1  0
 19 55  1  0
 22 56  1  0
 23 57  1  0
 28 58  1  0
 28 59  1  0
 30 60  1  0
 31 61  1  0
 34 62  1  0
 34 63  1  0
 34 64  1  0
M  END
>  <Energy>  (928) 
16.084626585244308

>  <compound_id>  (928) 
3803

>  <target_id>  (928) 
1

>  <reference_id>  (928) 
145

>  <inspiration_ids>  (928) 
[131, 145]

>  <energy_score>  (928) 
-83.95700180572175

>  <distance_score>  (928) 
2.174801540291327

>  <path>  (928) 
/opt/xchem-fragalysis-2/maxwin/BulkDock/SCRATCH/505734/C3803-P145/C3803-P145.minimised.mol

>  <scratch_subdir>  (928) 
/opt/xchem-fragalysis-2/maxwin/BulkDock/SCRATCH/505734/C3803-P145

>  <fragmenstein_runtime>  (928) 
10.468648910522461

>  <fragmenstein_outcome>  (928) 
too moved

>  <fragmenstein_mode>  (928) 
expansion

>  <fragmenstein_error>  (928) 


$$$$
C3807-P131
     RDKit          3D

 37 40  0  0  0  0  0  0  0  0999 V2000
   -1.5578   -4.4280   40.9509 C   0  0  0  0  0  0  0  0  0  0  0  0
   -0.6303   -5.3742   40.4597 O   0  0  0  0  0  0  0  0  0  0  0  0
   -0.4811   -5.5273   39.1130 C   0  0  0  0  0  0  0  0  0  0  0  0
   -0.8667   -4.5604   38.1771 C   0  0  0  0  0  0  0  0  0  0  0  0
   -0.7342   -4.7802   36.7983 C   0  0  0  0  0  0  0  0  0  0  0  0
   -0.1791   -5.9601   36.3196 C   0  0  0  0  0  0  0  0  0  0  0  0
   -0.3696   -6.3626   34.9011 C   0  0  0  0  0  0  0  0  0  0  0  0
    0.0415   -5.7095   33.7729 C   0  0  0  0  0  0  0  0  0  0  0  0
    0.7232   -4.4180   33.6487 C   0  0  0  0  0  0  0  0  0  0  0  0
    0.9496   -3.8729   32.4270 C   0  0  0  0  0  0  0  0  0  0  0  0
    0.5873   -4.5644   31.1856 C   0  0  0  0  0  0  0  0  0  0  0  0
    0.0496   -5.7869   31.2996 C   0  0  0  0  0  0  0  0  0  0  0  0
   -0.4111   -6.7238   30.3996 N   0  0  0  0  0  0  0  0  0  0  0  0
   -1.1800   -7.7032   31.0662 N   0  0  0  0  0  0  0  0  0  0  0  0
   -1.0105   -7.3933   32.3405 C   0  0  0  0  0  0  0  0  0  0  0  0
   -1.5893   -8.0431   33.5002 C   0  0  0  0  0  0  0  0  0  0  0  0
   -1.2346   -7.5492   34.6985 C   0  0  0  0  0  0  0  0  0  0  0  0
   -0.2294   -6.2896   32.5410 N   0  0  0  0  0  0  0  0  0  0  0  0
    0.2820   -6.9012   37.2645 C   0  0  0  0  0  0  0  0  0  0  0  0
    0.1075   -6.7124   38.6585 C   0  0  0  0  0  0  0  0  0  0  0  0
    0.5041   -7.7730   39.4409 O   0  0  0  0  0  0  0  0  0  0  0  0
   -0.0005   -7.8859   40.7711 C   0  0  0  0  0  0  0  0  0  0  0  0
   -1.6908   -4.6109   42.0215 H   0  0  0  0  0  0  0  0  0  0  0  0
   -1.1647   -3.4128   40.8354 H   0  0  0  0  0  0  0  0  0  0  0  0
   -2.5343   -4.5106   40.4781 H   0  0  0  0  0  0  0  0  0  0  0  0
   -1.3234   -3.6285   38.4966 H   0  0  0  0  0  0  0  0  0  0  0  0
   -1.1529   -4.0485   36.1089 H   0  0  0  0  0  0  0  0  0  0  0  0
    1.0118   -3.8909   34.5512 H   0  0  0  0  0  0  0  0  0  0  0  0
    1.4321   -2.9046   32.3355 H   0  0  0  0  0  0  0  0  0  0  0  0
    0.7850   -4.0979   30.2295 H   0  0  0  0  0  0  0  0  0  0  0  0
   -0.6354   -6.4286   29.4527 H   0  0  0  0  0  0  0  0  0  0  0  0
   -2.2618   -8.8608   33.3464 H   0  0  0  0  0  0  0  0  0  0  0  0
   -1.6222   -8.0518   35.5818 H   0  0  0  0  0  0  0  0  0  0  0  0
    0.6743   -7.8613   36.9302 H   0  0  0  0  0  0  0  0  0  0  0  0
    0.5355   -7.2125   41.4463 H   0  0  0  0  0  0  0  0  0  0  0  0
    0.2095   -8.9062   41.1084 H   0  0  0  0  0  0  0  0  0  0  0  0
   -1.0834   -7.7517   40.8225 H   0  0  0  0  0  0  0  0  0  0  0  0
  1  2  1  0
  2  3  1  0
  3  4  2  0
  4  5  1  0
  5  6  2  0
  6  7  1  0
  7  8  2  0
  8  9  1  0
  9 10  2  0
 10 11  1  0
 11 12  2  0
 12 13  1  0
 13 14  1  0
 14 15  2  0
 15 16  1  0
 16 17  2  0
 15 18  1  0
  6 19  1  0
 19 20  2  0
 20 21  1  0
 21 22  1  0
 20  3  1  0
 17  7  1  0
 18  8  1  0
 18 12  1  0
  1 23  1  0
  1 24  1  0
  1 25  1  0
  4 26  1  0
  5 27  1  0
  9 28  1  0
 10 29  1  0
 11 30  1  0
 13 31  1  0
 16 32  1  0
 17 33  1  0
 19 34  1  0
 22 35  1  0
 22 36  1  0
 22 37  1  0
M  END
>  <Energy>  (929) 
116.59726633982892

>  <compound_id>  (929) 
3807

>  <target_id>  (929) 
1

>  <reference_id>  (929) 
131

>  <inspiration_ids>  (929) 
[131, 150]

>  <energy_score>  (929) 
-24.105977161187127

>  <distance_score>  (929) 
1.8354346789873106

>  <path>  (929) 
/opt/xchem-fragalysis-2/maxwin/BulkDock/SCRATCH/505734/C3807-P131/C3807-P131.minimised.mol

>  <scratch_subdir>  (929) 
/opt/xchem-fragalysis-2/maxwin/BulkDock/SCRATCH/505734/C3807-P131

>  <fragmenstein_runtime>  (929) 
3.188899517059326

>  <fragmenstein_outcome>  (929) 
too moved

>  <fragmenstein_mode>  (929) 
expansion

>  <fragmenstein_error>  (929) 


$$$$
C3807-P150
     RDKit          3D

 37 40  0  0  0  0  0  0  0  0999 V2000
   -2.0961   -5.0431   40.7973 C   0  0  0  0  0  0  0  0  0  0  0  0
   -0.7334   -5.1205   40.3868 O   0  0  0  0  0  0  0  0  0  0  0  0
   -0.5839   -5.4425   39.0664 C   0  0  0  0  0  0  0  0  0  0  0  0
   -0.9379   -4.4902   38.1026 C   0  0  0  0  0  0  0  0  0  0  0  0
   -0.7772   -4.7402   36.7366 C   0  0  0  0  0  0  0  0  0  0  0  0
   -0.2154   -5.9329   36.3006 C   0  0  0  0  0  0  0  0  0  0  0  0
   -0.3543   -6.3500   34.8790 C   0  0  0  0  0  0  0  0  0  0  0  0
    0.0500   -5.6831   33.7542 C   0  0  0  0  0  0  0  0  0  0  0  0
    0.6996   -4.3739   33.6403 C   0  0  0  0  0  0  0  0  0  0  0  0
    0.8926   -3.8026   32.4250 C   0  0  0  0  0  0  0  0  0  0  0  0
    0.5157   -4.4748   31.1779 C   0  0  0  0  0  0  0  0  0  0  0  0
    0.0178   -5.7153   31.2771 C   0  0  0  0  0  0  0  0  0  0  0  0
   -0.4558   -6.6353   30.3614 N   0  0  0  0  0  0  0  0  0  0  0  0
   -1.1868   -7.6438   31.0326 N   0  0  0  0  0  0  0  0  0  0  0  0
   -0.9857   -7.3602   32.3076 C   0  0  0  0  0  0  0  0  0  0  0  0
   -1.5395   -8.0359   33.4624 C   0  0  0  0  0  0  0  0  0  0  0  0
   -1.1853   -7.5569   34.6654 C   0  0  0  0  0  0  0  0  0  0  0  0
   -0.2082   -6.2569   32.5146 N   0  0  0  0  0  0  0  0  0  0  0  0
    0.2113   -6.8575   37.2820 C   0  0  0  0  0  0  0  0  0  0  0  0
    0.0157   -6.6376   38.6699 C   0  0  0  0  0  0  0  0  0  0  0  0
    0.4213   -7.6676   39.4830 O   0  0  0  0  0  0  0  0  0  0  0  0
    0.0216   -7.6752   40.8502 C   0  0  0  0  0  0  0  0  0  0  0  0
   -2.5860   -6.0134   40.7142 H   0  0  0  0  0  0  0  0  0  0  0  0
   -2.1078   -4.7556   41.8530 H   0  0  0  0  0  0  0  0  0  0  0  0
   -2.6501   -4.2811   40.2404 H   0  0  0  0  0  0  0  0  0  0  0  0
   -1.3658   -3.5401   38.4128 H   0  0  0  0  0  0  0  0  0  0  0  0
   -1.1662   -4.0160   36.0225 H   0  0  0  0  0  0  0  0  0  0  0  0
    0.9935   -3.8552   34.5462 H   0  0  0  0  0  0  0  0  0  0  0  0
    1.3512   -2.8217   32.3433 H   0  0  0  0  0  0  0  0  0  0  0  0
    0.6628   -3.9761   30.2286 H   0  0  0  0  0  0  0  0  0  0  0  0
   -0.7733   -6.2829   29.4582 H   0  0  0  0  0  0  0  0  0  0  0  0
   -2.1940   -8.8609   33.2992 H   0  0  0  0  0  0  0  0  0  0  0  0
   -1.5581   -8.0836   35.5412 H   0  0  0  0  0  0  0  0  0  0  0  0
    0.6201   -7.8196   36.9775 H   0  0  0  0  0  0  0  0  0  0  0  0
   -1.0642   -7.6503   40.9542 H   0  0  0  0  0  0  0  0  0  0  0  0
    0.3575   -8.6259   41.2773 H   0  0  0  0  0  0  0  0  0  0  0  0
    0.5198   -6.8823   41.4147 H   0  0  0  0  0  0  0  0  0  0  0  0
  1  2  1  0
  2  3  1  0
  3  4  2  0
  4  5  1  0
  5  6  2  0
  6  7  1  0
  7  8  2  0
  8  9  1  0
  9 10  2  0
 10 11  1  0
 11 12  2  0
 12 13  1  0
 13 14  1  0
 14 15  2  0
 15 16  1  0
 16 17  2  0
 15 18  1  0
  6 19  1  0
 19 20  2  0
 20 21  1  0
 21 22  1  0
 20  3  1  0
 17  7  1  0
 18  8  1  0
 18 12  1  0
  1 23  1  0
  1 24  1  0
  1 25  1  0
  4 26  1  0
  5 27  1  0
  9 28  1  0
 10 29  1  0
 11 30  1  0
 13 31  1  0
 16 32  1  0
 17 33  1  0
 19 34  1  0
 22 35  1  0
 22 36  1  0
 22 37  1  0
M  END
>  <Energy>  (930) 
117.37793764921375

>  <compound_id>  (930) 
3807

>  <target_id>  (930) 
1

>  <reference_id>  (930) 
150

>  <inspiration_ids>  (930) 
[131, 150]

>  <energy_score>  (930) 
-23.325305851800096

>  <distance_score>  (930) 
1.815360463960063

>  <path>  (930) 
/opt/xchem-fragalysis-2/maxwin/BulkDock/SCRATCH/505734/C3807-P150/C3807-P150.minimised.mol

>  <scratch_subdir>  (930) 
/opt/xchem-fragalysis-2/maxwin/BulkDock/SCRATCH/505734/C3807-P150

>  <fragmenstein_runtime>  (930) 
3.0059497356414795

>  <fragmenstein_outcome>  (930) 
too moved

>  <fragmenstein_mode>  (930) 
expansion

>  <fragmenstein_error>  (930) 


$$$$
C3811-P131
     RDKit          3D

 42 44  0  0  0  0  0  0  0  0999 V2000
    3.3123    2.4936   32.4404 C   0  0  0  0  0  0  0  0  0  0  0  0
    3.9031    1.3532   33.0720 N   0  0  0  0  0  0  0  0  0  0  0  0
    3.7732    0.8321   34.5183 C   0  0  0  0  0  0  0  0  0  0  0  0
    3.2378    1.2837   35.4217 O   0  0  0  0  0  0  0  0  0  0  0  0
    4.6084   -0.4393   34.4023 N   0  0  0  0  0  0  0  0  0  0  0  0
    5.0683   -1.4417   35.4902 C   0  0  0  0  0  0  0  0  0  0  0  0
    3.7346   -1.6476   34.0298 C   0  0  0  0  0  0  0  0  0  0  0  0
    2.3897   -1.7258   34.4454 C   0  0  0  0  0  0  0  0  0  0  0  0
    1.5592   -2.7468   33.9819 C   0  0  0  0  0  0  0  0  0  0  0  0
    2.0410   -3.6835   33.0643 C   0  0  0  0  0  0  0  0  0  0  0  0
    1.1593   -4.7284   32.5137 C   0  0  0  0  0  0  0  0  0  0  0  0
    0.9629   -4.8663   31.0700 C   0  0  0  0  0  0  0  0  0  0  0  0
    0.1931   -5.8314   30.5468 C   0  0  0  0  0  0  0  0  0  0  0  0
   -0.4638   -6.7501   31.3953 C   0  0  0  0  0  0  0  0  0  0  0  0
   -1.2452   -7.7748   31.1475 N   0  0  0  0  0  0  0  0  0  0  0  0
   -1.6270   -8.2930   32.3591 N   0  0  0  0  0  0  0  0  0  0  0  0
   -1.0810   -7.5809   33.3228 C   0  0  0  0  0  0  0  0  0  0  0  0
   -1.2067   -7.7925   34.6550 N   0  0  0  0  0  0  0  0  0  0  0  0
   -0.3119   -6.5777   32.7628 N   0  0  0  0  0  0  0  0  0  0  0  0
    0.4935   -5.5822   33.3242 C   0  0  0  0  0  0  0  0  0  0  0  0
    3.3608   -3.5755   32.5916 C   0  0  0  0  0  0  0  0  0  0  0  0
    4.2012   -2.5507   33.0375 C   0  0  0  0  0  0  0  0  0  0  0  0
    5.4762   -2.3362   32.5759 O   0  0  0  0  0  0  0  0  0  0  0  0
    5.9074   -3.0938   31.4533 C   0  0  0  0  0  0  0  0  0  0  0  0
    2.6788    3.0227   33.1555 H   0  0  0  0  0  0  0  0  0  0  0  0
    2.7167    2.1512   31.5915 H   0  0  0  0  0  0  0  0  0  0  0  0
    4.1117    3.1493   32.0883 H   0  0  0  0  0  0  0  0  0  0  0  0
    4.5174    0.7438   32.5451 H   0  0  0  0  0  0  0  0  0  0  0  0
    4.3001   -1.6766   36.2430 H   0  0  0  0  0  0  0  0  0  0  0  0
    5.7936   -0.8452   36.0633 H   0  0  0  0  0  0  0  0  0  0  0  0
    5.6548   -2.2977   35.1296 H   0  0  0  0  0  0  0  0  0  0  0  0
    1.9801   -0.9987   35.1440 H   0  0  0  0  0  0  0  0  0  0  0  0
    0.5257   -2.7808   34.3225 H   0  0  0  0  0  0  0  0  0  0  0  0
    1.4312   -4.1367   30.4136 H   0  0  0  0  0  0  0  0  0  0  0  0
    0.0335   -5.8905   29.4851 H   0  0  0  0  0  0  0  0  0  0  0  0
   -1.4415   -8.7804   34.8623 H   0  0  0  0  0  0  0  0  0  0  0  0
   -0.4599   -7.5052   35.2763 H   0  0  0  0  0  0  0  0  0  0  0  0
    0.5482   -5.5516   34.4050 H   0  0  0  0  0  0  0  0  0  0  0  0
    3.7077   -4.2963   31.8584 H   0  0  0  0  0  0  0  0  0  0  0  0
    5.2406   -2.9510   30.5965 H   0  0  0  0  0  0  0  0  0  0  0  0
    6.0018   -4.1540   31.7097 H   0  0  0  0  0  0  0  0  0  0  0  0
    6.8994   -2.7316   31.1668 H   0  0  0  0  0  0  0  0  0  0  0  0
  1  2  1  0
  2  3  1  0
  3  4  2  0
  3  5  1  0
  5  6  1  0
  5  7  1  0
  7  8  2  0
  8  9  1  0
  9 10  2  0
 10 11  1  0
 11 12  1  0
 12 13  2  0
 13 14  1  0
 14 15  2  0
 15 16  1  0
 16 17  2  0
 17 18  1  0
 17 19  1  0
 19 20  1  0
 10 21  1  0
 21 22  2  0
 22 23  1  0
 23 24  1  0
 22  7  1  0
 20 11  2  0
 19 14  1  0
  1 25  1  0
  1 26  1  0
  1 27  1  0
  2 28  1  0
  6 29  1  0
  6 30  1  0
  6 31  1  0
  8 32  1  0
  9 33  1  0
 12 34  1  0
 13 35  1  0
 18 36  1  0
 18 37  1  0
 20 38  1  0
 21 39  1  0
 24 40  1  0
 24 41  1  0
 24 42  1  0
M  END
>  <Energy>  (931) 
90.582668682218284

>  <compound_id>  (931) 
3811

>  <target_id>  (931) 
1

>  <reference_id>  (931) 
131

>  <inspiration_ids>  (931) 
[131, 156]

>  <energy_score>  (931) 
24.559194174471912

>  <distance_score>  (931) 
3.617078188554882

>  <path>  (931) 
/opt/xchem-fragalysis-2/maxwin/BulkDock/SCRATCH/505734/C3811-P131/C3811-P131.minimised.mol

>  <scratch_subdir>  (931) 
/opt/xchem-fragalysis-2/maxwin/BulkDock/SCRATCH/505734/C3811-P131

>  <fragmenstein_runtime>  (931) 
5.60774302482605

>  <fragmenstein_outcome>  (931) 
too moved

>  <fragmenstein_mode>  (931) 
expansion

>  <fragmenstein_error>  (931) 


$$$$
C3811-P156
     RDKit          3D

 42 44  0  0  0  0  0  0  0  0999 V2000
    3.3060    2.4630   32.2970 C   0  0  0  0  0  0  0  0  0  0  0  0
    3.8901    1.3201   32.9304 N   0  0  0  0  0  0  0  0  0  0  0  0
    3.7639    0.8067   34.3798 C   0  0  0  0  0  0  0  0  0  0  0  0
    3.2378    1.2671   35.2842 O   0  0  0  0  0  0  0  0  0  0  0  0
    4.5889   -0.4715   34.2653 N   0  0  0  0  0  0  0  0  0  0  0  0
    5.0486   -1.4715   35.3557 C   0  0  0  0  0  0  0  0  0  0  0  0
    3.7039   -1.6751   33.9052 C   0  0  0  0  0  0  0  0  0  0  0  0
    2.3624   -1.7421   34.3332 C   0  0  0  0  0  0  0  0  0  0  0  0
    1.5199   -2.7572   33.8784 C   0  0  0  0  0  0  0  0  0  0  0  0
    1.9852   -3.6992   32.9568 C   0  0  0  0  0  0  0  0  0  0  0  0
    1.0927   -4.7474   32.4280 C   0  0  0  0  0  0  0  0  0  0  0  0
    0.8592   -4.9018   30.9899 C   0  0  0  0  0  0  0  0  0  0  0  0
    0.0842   -5.8800   30.4954 C   0  0  0  0  0  0  0  0  0  0  0  0
   -0.5338   -6.8009   31.3723 C   0  0  0  0  0  0  0  0  0  0  0  0
   -1.2908   -7.8526   31.1591 N   0  0  0  0  0  0  0  0  0  0  0  0
   -1.6454   -8.3533   32.3862 N   0  0  0  0  0  0  0  0  0  0  0  0
   -1.1143   -7.5981   33.3247 C   0  0  0  0  0  0  0  0  0  0  0  0
   -1.2399   -7.7703   34.6598 N   0  0  0  0  0  0  0  0  0  0  0  0
   -0.3624   -6.5996   32.7336 N   0  0  0  0  0  0  0  0  0  0  0  0
    0.4470   -5.5918   33.2637 C   0  0  0  0  0  0  0  0  0  0  0  0
    3.3012   -3.6018   32.4718 C   0  0  0  0  0  0  0  0  0  0  0  0
    4.1545   -2.5839   32.9108 C   0  0  0  0  0  0  0  0  0  0  0  0
    5.4272   -2.3799   32.4391 O   0  0  0  0  0  0  0  0  0  0  0  0
    5.8552   -3.1580   31.3298 C   0  0  0  0  0  0  0  0  0  0  0  0
    2.6865    3.0045   33.0151 H   0  0  0  0  0  0  0  0  0  0  0  0
    2.6970    2.1215   31.4571 H   0  0  0  0  0  0  0  0  0  0  0  0
    4.1089    3.1067   31.9315 H   0  0  0  0  0  0  0  0  0  0  0  0
    4.4959    0.7029   32.4027 H   0  0  0  0  0  0  0  0  0  0  0  0
    5.7841   -0.8784   35.9191 H   0  0  0  0  0  0  0  0  0  0  0  0
    4.2842   -1.6945   36.1159 H   0  0  0  0  0  0  0  0  0  0  0  0
    5.6240   -2.3352   34.9956 H   0  0  0  0  0  0  0  0  0  0  0  0
    1.9657   -1.0104   35.0347 H   0  0  0  0  0  0  0  0  0  0  0  0
    0.4902   -2.7823   34.2309 H   0  0  0  0  0  0  0  0  0  0  0  0
    1.2969   -4.1677   30.3170 H   0  0  0  0  0  0  0  0  0  0  0  0
   -0.1207   -5.9478   29.4391 H   0  0  0  0  0  0  0  0  0  0  0  0
   -1.5023   -8.7301   34.9179 H   0  0  0  0  0  0  0  0  0  0  0  0
   -0.5499   -7.3894   35.2975 H   0  0  0  0  0  0  0  0  0  0  0  0
    0.5283   -5.5447   34.3422 H   0  0  0  0  0  0  0  0  0  0  0  0
    3.6361   -4.3251   31.7356 H   0  0  0  0  0  0  0  0  0  0  0  0
    5.9390   -4.2151   31.6021 H   0  0  0  0  0  0  0  0  0  0  0  0
    6.8513   -2.8092   31.0410 H   0  0  0  0  0  0  0  0  0  0  0  0
    5.1920   -3.0220   30.4691 H   0  0  0  0  0  0  0  0  0  0  0  0
  1  2  1  0
  2  3  1  0
  3  4  2  0
  3  5  1  0
  5  6  1  0
  5  7  1  0
  7  8  2  0
  8  9  1  0
  9 10  2  0
 10 11  1  0
 11 12  1  0
 12 13  2  0
 13 14  1  0
 14 15  2  0
 15 16  1  0
 16 17  2  0
 17 18  1  0
 17 19  1  0
 19 20  1  0
 10 21  1  0
 21 22  2  0
 22 23  1  0
 23 24  1  0
 22  7  1  0
 20 11  2  0
 19 14  1  0
  1 25  1  0
  1 26  1  0
  1 27  1  0
  2 28  1  0
  6 29  1  0
  6 30  1  0
  6 31  1  0
  8 32  1  0
  9 33  1  0
 12 34  1  0
 13 35  1  0
 18 36  1  0
 18 37  1  0
 20 38  1  0
 21 39  1  0
 24 40  1  0
 24 41  1  0
 24 42  1  0
M  END
>  <Energy>  (932) 
90.16248928974872

>  <compound_id>  (932) 
3811

>  <target_id>  (932) 
1

>  <reference_id>  (932) 
156

>  <inspiration_ids>  (932) 
[131, 156]

>  <energy_score>  (932) 
24.139014782002846

>  <distance_score>  (932) 
3.56659665730516

>  <path>  (932) 
/opt/xchem-fragalysis-2/maxwin/BulkDock/SCRATCH/505734/C3811-P156/C3811-P156.minimised.mol

>  <scratch_subdir>  (932) 
/opt/xchem-fragalysis-2/maxwin/BulkDock/SCRATCH/505734/C3811-P156

>  <fragmenstein_runtime>  (932) 
5.067009925842285

>  <fragmenstein_outcome>  (932) 
too moved

>  <fragmenstein_mode>  (932) 
expansion

>  <fragmenstein_error>  (932) 


$$$$
C3750-P131
     RDKit          3D

 59 62  0  0  0  0  0  0  0  0999 V2000
   -0.8430   -5.5975   40.6455 C   0  0  0  0  0  0  0  0  0  0  0  0
    0.2436   -4.6826   40.5056 O   0  0  0  0  0  0  0  0  0  0  0  0
    0.7367   -4.6471   39.2286 C   0  0  0  0  0  0  0  0  0  0  0  0
    2.1081   -4.8693   39.1074 C   0  0  0  0  0  0  0  0  0  0  0  0
    2.7010   -4.9250   37.8453 C   0  0  0  0  0  0  0  0  0  0  0  0
    1.9253   -4.7579   36.6883 C   0  0  0  0  0  0  0  0  0  0  0  0
    2.4810   -5.2057   35.3651 C   0  0  0  0  0  0  0  0  0  0  0  0
    2.6631   -6.6734   35.3597 C   0  0  0  0  0  0  0  0  0  0  0  0
    1.7786   -7.4636   34.7351 C   0  0  0  0  0  0  0  0  0  0  0  0
    0.7893   -6.8895   33.8978 C   0  0  0  0  0  0  0  0  0  0  0  0
   -0.2319   -7.3842   33.2335 N   0  0  0  0  0  0  0  0  0  0  0  0
   -0.9406   -6.3231   32.7146 N   0  0  0  0  0  0  0  0  0  0  0  0
   -0.3156   -5.2160   33.0495 C   0  0  0  0  0  0  0  0  0  0  0  0
   -0.8021   -3.9466   33.0062 N   0  0  0  0  0  0  0  0  0  0  0  0
    0.8837   -5.5246   33.6677 N   0  0  0  0  0  0  0  0  0  0  0  0
    1.8874   -4.6965   34.2412 C   0  0  0  0  0  0  0  0  0  0  0  0
    2.8634   -4.0782   33.2548 C   0  0  0  0  0  0  0  0  0  0  0  0
    2.2763   -3.3212   32.1877 N   0  0  0  0  0  0  0  0  0  0  0  0
    1.6800   -3.7505   30.9341 C   0  0  0  0  0  0  0  0  0  0  0  0
    1.4633   -4.8288   30.5243 O   0  0  0  0  0  0  0  0  0  0  0  0
    1.3422   -2.4450   30.3766 N   0  0  0  0  0  0  0  0  0  0  0  0
    2.4691   -1.9537   29.4904 C   0  0  0  0  0  0  0  0  0  0  0  0
    0.5155   -2.0788   29.1658 C   0  0  0  0  0  0  0  0  0  0  0  0
   -0.0200   -0.6498   29.0694 C   0  0  0  0  0  0  0  0  0  0  0  0
    0.4398    0.4108   29.8637 C   0  0  0  0  0  0  0  0  0  0  0  0
    0.0441    1.7227   29.5957 C   0  0  0  0  0  0  0  0  0  0  0  0
   -0.8663    1.9878   28.5743 C   0  0  0  0  0  0  0  0  0  0  0  0
   -1.3990    0.9392   27.8353 C   0  0  0  0  0  0  0  0  0  0  0  0
   -0.9807   -0.3681   28.0844 C   0  0  0  0  0  0  0  0  0  0  0  0
    0.5662   -4.4475   36.8315 C   0  0  0  0  0  0  0  0  0  0  0  0
   -0.0251   -4.3661   38.0916 C   0  0  0  0  0  0  0  0  0  0  0  0
   -1.3564   -4.0828   38.2205 O   0  0  0  0  0  0  0  0  0  0  0  0
   -1.7744   -2.9853   37.4115 C   0  0  0  0  0  0  0  0  0  0  0  0
   -1.7930   -5.0752   40.5072 H   0  0  0  0  0  0  0  0  0  0  0  0
   -0.7635   -6.4549   39.9677 H   0  0  0  0  0  0  0  0  0  0  0  0
   -0.8235   -5.9811   41.6703 H   0  0  0  0  0  0  0  0  0  0  0  0
    2.7058   -5.0452   39.9979 H   0  0  0  0  0  0  0  0  0  0  0  0
    3.7579   -5.1705   37.7734 H   0  0  0  0  0  0  0  0  0  0  0  0
    3.4183   -7.0952   36.0172 H   0  0  0  0  0  0  0  0  0  0  0  0
    1.8051   -8.5241   34.9070 H   0  0  0  0  0  0  0  0  0  0  0  0
   -0.9437   -3.6492   32.0412 H   0  0  0  0  0  0  0  0  0  0  0  0
   -1.7500   -3.9370   33.4012 H   0  0  0  0  0  0  0  0  0  0  0  0
    3.5506   -3.4008   33.7746 H   0  0  0  0  0  0  0  0  0  0  0  0
    3.4557   -4.8731   32.7849 H   0  0  0  0  0  0  0  0  0  0  0  0
    2.2337   -2.3126   32.2462 H   0  0  0  0  0  0  0  0  0  0  0  0
    2.7500   -2.6976   28.7271 H   0  0  0  0  0  0  0  0  0  0  0  0
    3.3523   -1.9303   30.1466 H   0  0  0  0  0  0  0  0  0  0  0  0
    2.4330   -0.9348   29.0897 H   0  0  0  0  0  0  0  0  0  0  0  0
   -0.3925   -2.6745   29.3603 H   0  0  0  0  0  0  0  0  0  0  0  0
    0.8329   -2.4994   28.1965 H   0  0  0  0  0  0  0  0  0  0  0  0
    1.1453    0.2375   30.6719 H   0  0  0  0  0  0  0  0  0  0  0  0
    0.4395    2.5447   30.1878 H   0  0  0  0  0  0  0  0  0  0  0  0
   -1.1884    3.0086   28.3769 H   0  0  0  0  0  0  0  0  0  0  0  0
   -2.1363    1.1350   27.0601 H   0  0  0  0  0  0  0  0  0  0  0  0
   -1.4025   -1.1710   27.4823 H   0  0  0  0  0  0  0  0  0  0  0  0
   -0.0683   -4.3493   35.9572 H   0  0  0  0  0  0  0  0  0  0  0  0
   -2.7206   -2.6156   37.8186 H   0  0  0  0  0  0  0  0  0  0  0  0
   -1.9566   -3.3016   36.3808 H   0  0  0  0  0  0  0  0  0  0  0  0
   -1.0569   -2.1569   37.4417 H   0  0  0  0  0  0  0  0  0  0  0  0
  1  2  1  0
  2  3  1  0
  3  4  2  0
  4  5  1  0
  5  6  2  0
  6  7  1  0
  7  8  1  0
  8  9  2  0
  9 10  1  0
 10 11  2  0
 11 12  1  0
 12 13  2  0
 13 14  1  0
 13 15  1  0
 15 16  1  0
 16 17  1  0
 17 18  1  0
 18 19  1  0
 19 20  2  0
 19 21  1  0
 21 22  1  0
 21 23  1  0
 23 24  1  0
 24 25  2  0
 25 26  1  0
 26 27  2  0
 27 28  1  0
 28 29  2  0
  6 30  1  0
 30 31  2  0
 31 32  1  0
 32 33  1  0
 31  3  1  0
 16  7  2  0
 29 24  1  0
 15 10  1  0
  1 34  1  0
  1 35  1  0
  1 36  1  0
  4 37  1  0
  5 38  1  0
  8 39  1  0
  9 40  1  0
 14 41  1  0
 14 42  1  0
 17 43  1  0
 17 44  1  0
 18 45  1  0
 22 46  1  0
 22 47  1  0
 22 48  1  0
 23 49  1  0
 23 50  1  0
 25 51  1  0
 26 52  1  0
 27 53  1  0
 28 54  1  0
 29 55  1  0
 30 56  1  0
 33 57  1  0
 33 58  1  0
 33 59  1  0
M  END
>  <Energy>  (933) 
148.38841150238284

>  <compound_id>  (933) 
3750

>  <target_id>  (933) 
1

>  <reference_id>  (933) 
131

>  <inspiration_ids>  (933) 
[131, 158]

>  <energy_score>  (933) 
100.33952573691207

>  <distance_score>  (933) 
2.7945438113917773

>  <path>  (933) 
/opt/xchem-fragalysis-2/maxwin/BulkDock/SCRATCH/505734/C3750-P131/C3750-P131.minimised.mol

>  <scratch_subdir>  (933) 
/opt/xchem-fragalysis-2/maxwin/BulkDock/SCRATCH/505734/C3750-P131

>  <fragmenstein_runtime>  (933) 
14.52535891532898

>  <fragmenstein_outcome>  (933) 
too moved

>  <fragmenstein_mode>  (933) 
expansion

>  <fragmenstein_error>  (933) 


$$$$
C3750-P158
     RDKit          3D

 59 62  0  0  0  0  0  0  0  0999 V2000
    0.1359   -7.5091   40.3857 C   0  0  0  0  0  0  0  0  0  0  0  0
   -0.3886   -6.3527   39.7405 O   0  0  0  0  0  0  0  0  0  0  0  0
    0.1193   -6.1090   38.4928 C   0  0  0  0  0  0  0  0  0  0  0  0
    0.4523   -7.1119   37.5856 C   0  0  0  0  0  0  0  0  0  0  0  0
    0.9586   -6.7690   36.3293 C   0  0  0  0  0  0  0  0  0  0  0  0
    1.1435   -5.4239   35.9683 C   0  0  0  0  0  0  0  0  0  0  0  0
    1.6923   -5.1011   34.6463 C   0  0  0  0  0  0  0  0  0  0  0  0
    3.1344   -4.9040   34.4394 C   0  0  0  0  0  0  0  0  0  0  0  0
    3.6409   -4.5604   33.2390 C   0  0  0  0  0  0  0  0  0  0  0  0
    2.7867   -4.5743   32.1069 C   0  0  0  0  0  0  0  0  0  0  0  0
    2.9736   -4.3536   30.8232 N   0  0  0  0  0  0  0  0  0  0  0  0
    1.8786   -4.8628   30.1519 N   0  0  0  0  0  0  0  0  0  0  0  0
    1.0140   -5.2903   31.0448 C   0  0  0  0  0  0  0  0  0  0  0  0
   -0.1275   -5.9612   30.8081 N   0  0  0  0  0  0  0  0  0  0  0  0
    1.4766   -4.9581   32.3083 N   0  0  0  0  0  0  0  0  0  0  0  0
    0.8734   -4.9748   33.5719 C   0  0  0  0  0  0  0  0  0  0  0  0
   -0.5788   -4.5607   33.6209 C   0  0  0  0  0  0  0  0  0  0  0  0
   -0.6615   -3.3521   32.8106 N   0  0  0  0  0  0  0  0  0  0  0  0
   -1.7266   -2.8441   31.9733 C   0  0  0  0  0  0  0  0  0  0  0  0
   -2.8172   -3.2430   31.8032 O   0  0  0  0  0  0  0  0  0  0  0  0
   -1.0096   -1.7378   31.3245 N   0  0  0  0  0  0  0  0  0  0  0  0
   -0.2566   -2.2472   30.1120 C   0  0  0  0  0  0  0  0  0  0  0  0
   -1.4864   -0.7160   30.3327 C   0  0  0  0  0  0  0  0  0  0  0  0
   -0.5539    0.4319   29.9798 C   0  0  0  0  0  0  0  0  0  0  0  0
    0.2323    1.0559   30.9565 C   0  0  0  0  0  0  0  0  0  0  0  0
    1.1442    2.0469   30.5919 C   0  0  0  0  0  0  0  0  0  0  0  0
    1.2692    2.4282   29.2552 C   0  0  0  0  0  0  0  0  0  0  0  0
    0.4789    1.8252   28.2784 C   0  0  0  0  0  0  0  0  0  0  0  0
   -0.4323    0.8339   28.6377 C   0  0  0  0  0  0  0  0  0  0  0  0
    0.8110   -4.4213   36.8684 C   0  0  0  0  0  0  0  0  0  0  0  0
    0.2634   -4.7707   38.1009 C   0  0  0  0  0  0  0  0  0  0  0  0
   -0.0825   -3.7355   38.9253 O   0  0  0  0  0  0  0  0  0  0  0  0
   -1.4870   -3.5079   38.8289 C   0  0  0  0  0  0  0  0  0  0  0  0
    1.2270   -7.5625   40.3000 H   0  0  0  0  0  0  0  0  0  0  0  0
   -0.1125   -7.4384   41.4491 H   0  0  0  0  0  0  0  0  0  0  0  0
   -0.3297   -8.4192   39.9972 H   0  0  0  0  0  0  0  0  0  0  0  0
    0.3040   -8.1635   37.8181 H   0  0  0  0  0  0  0  0  0  0  0  0
    1.2025   -7.5668   35.6322 H   0  0  0  0  0  0  0  0  0  0  0  0
    3.7797   -4.9454   35.3142 H   0  0  0  0  0  0  0  0  0  0  0  0
    4.6952   -4.3480   33.1007 H   0  0  0  0  0  0  0  0  0  0  0  0
   -0.5333   -6.5853   31.4953 H   0  0  0  0  0  0  0  0  0  0  0  0
   -0.3120   -6.2211   29.8423 H   0  0  0  0  0  0  0  0  0  0  0  0
   -1.2452   -5.3274   33.2221 H   0  0  0  0  0  0  0  0  0  0  0  0
   -0.9117   -4.2859   34.6233 H   0  0  0  0  0  0  0  0  0  0  0  0
    0.1201   -2.7092   32.7778 H   0  0  0  0  0  0  0  0  0  0  0  0
    0.4033   -3.0019   30.5199 H   0  0  0  0  0  0  0  0  0  0  0  0
    0.4769   -1.5900   29.6318 H   0  0  0  0  0  0  0  0  0  0  0  0
   -0.8921   -2.8039   29.4061 H   0  0  0  0  0  0  0  0  0  0  0  0
   -2.3090   -0.2296   30.8796 H   0  0  0  0  0  0  0  0  0  0  0  0
   -2.0169   -1.1465   29.4704 H   0  0  0  0  0  0  0  0  0  0  0  0
    0.1598    0.7486   31.9972 H   0  0  0  0  0  0  0  0  0  0  0  0
    1.7664    2.5187   31.3482 H   0  0  0  0  0  0  0  0  0  0  0  0
    1.9792    3.2023   28.9743 H   0  0  0  0  0  0  0  0  0  0  0  0
    0.5713    2.1276   27.2384 H   0  0  0  0  0  0  0  0  0  0  0  0
   -1.0241    0.3567   27.8576 H   0  0  0  0  0  0  0  0  0  0  0  0
    0.9426   -3.3728   36.6169 H   0  0  0  0  0  0  0  0  0  0  0  0
   -2.0374   -4.2654   39.3923 H   0  0  0  0  0  0  0  0  0  0  0  0
   -1.8313   -3.4707   37.7889 H   0  0  0  0  0  0  0  0  0  0  0  0
   -1.6984   -2.5358   39.2846 H   0  0  0  0  0  0  0  0  0  0  0  0
  1  2  1  0
  2  3  1  0
  3  4  2  0
  4  5  1  0
  5  6  2  0
  6  7  1  0
  7  8  1  0
  8  9  2  0
  9 10  1  0
 10 11  2  0
 11 12  1  0
 12 13  2  0
 13 14  1  0
 13 15  1  0
 15 16  1  0
 16 17  1  0
 17 18  1  0
 18 19  1  0
 19 20  2  0
 19 21  1  0
 21 22  1  0
 21 23  1  0
 23 24  1  0
 24 25  2  0
 25 26  1  0
 26 27  2  0
 27 28  1  0
 28 29  2  0
  6 30  1  0
 30 31  2  0
 31 32  1  0
 32 33  1  0
 31  3  1  0
 16  7  2  0
 29 24  1  0
 15 10  1  0
  1 34  1  0
  1 35  1  0
  1 36  1  0
  4 37  1  0
  5 38  1  0
  8 39  1  0
  9 40  1  0
 14 41  1  0
 14 42  1  0
 17 43  1  0
 17 44  1  0
 18 45  1  0
 22 46  1  0
 22 47  1  0
 22 48  1  0
 23 49  1  0
 23 50  1  0
 25 51  1  0
 26 52  1  0
 27 53  1  0
 28 54  1  0
 29 55  1  0
 30 56  1  0
 33 57  1  0
 33 58  1  0
 33 59  1  0
M  END
>  <Energy>  (934) 
90.41037144083333

>  <compound_id>  (934) 
3750

>  <target_id>  (934) 
1

>  <reference_id>  (934) 
158

>  <inspiration_ids>  (934) 
[131, 158]

>  <energy_score>  (934) 
42.361485675355425

>  <distance_score>  (934) 
2.899703477225237

>  <path>  (934) 
/opt/xchem-fragalysis-2/maxwin/BulkDock/SCRATCH/505734/C3750-P158/C3750-P158.minimised.mol

>  <scratch_subdir>  (934) 
/opt/xchem-fragalysis-2/maxwin/BulkDock/SCRATCH/505734/C3750-P158

>  <fragmenstein_runtime>  (934) 
18.87951636314392

>  <fragmenstein_outcome>  (934) 
too moved

>  <fragmenstein_mode>  (934) 
expansion

>  <fragmenstein_error>  (934) 


$$$$
C3750-P131
     RDKit          3D

 59 62  0  0  0  0  0  0  0  0999 V2000
    3.6396   -8.8007   39.0777 C   0  0  0  0  0  0  0  0  0  0  0  0
    3.6632   -7.3738   39.0961 O   0  0  0  0  0  0  0  0  0  0  0  0
    2.9387   -6.8084   38.0812 C   0  0  0  0  0  0  0  0  0  0  0  0
    3.5870   -5.8115   37.3454 C   0  0  0  0  0  0  0  0  0  0  0  0
    2.9323   -5.1625   36.2911 C   0  0  0  0  0  0  0  0  0  0  0  0
    1.6268   -5.5221   35.9520 C   0  0  0  0  0  0  0  0  0  0  0  0
    0.8386   -4.8199   34.9176 C   0  0  0  0  0  0  0  0  0  0  0  0
   -0.2219   -3.9078   35.3600 C   0  0  0  0  0  0  0  0  0  0  0  0
   -1.0488   -3.2955   34.5022 C   0  0  0  0  0  0  0  0  0  0  0  0
   -1.0162   -3.6549   33.1384 C   0  0  0  0  0  0  0  0  0  0  0  0
   -1.8356   -3.3732   32.1530 N   0  0  0  0  0  0  0  0  0  0  0  0
   -1.4069   -4.0599   31.0617 N   0  0  0  0  0  0  0  0  0  0  0  0
   -0.3411   -4.7548   31.3847 C   0  0  0  0  0  0  0  0  0  0  0  0
    0.2555   -5.6607   30.5681 N   0  0  0  0  0  0  0  0  0  0  0  0
   -0.0025   -4.5012   32.7129 N   0  0  0  0  0  0  0  0  0  0  0  0
    1.0201   -4.9788   33.5763 C   0  0  0  0  0  0  0  0  0  0  0  0
    2.2777   -5.4969   32.9394 C   0  0  0  0  0  0  0  0  0  0  0  0
    2.8471   -4.3337   32.2823 N   0  0  0  0  0  0  0  0  0  0  0  0
    2.9854   -4.0114   30.8747 C   0  0  0  0  0  0  0  0  0  0  0  0
    2.7412   -4.6505   29.9196 O   0  0  0  0  0  0  0  0  0  0  0  0
    3.4236   -2.6263   30.9943 N   0  0  0  0  0  0  0  0  0  0  0  0
    4.9286   -2.5590   30.9941 C   0  0  0  0  0  0  0  0  0  0  0  0
    3.5895   -1.5527   29.9396 C   0  0  0  0  0  0  0  0  0  0  0  0
    2.2105   -0.9135   29.6935 C   0  0  0  0  0  0  0  0  0  0  0  0
    1.8955    0.3328   30.2622 C   0  0  0  0  0  0  0  0  0  0  0  0
    0.6642    0.9451   30.0109 C   0  0  0  0  0  0  0  0  0  0  0  0
   -0.2773    0.3130   29.2032 C   0  0  0  0  0  0  0  0  0  0  0  0
    0.0086   -0.9355   28.6558 C   0  0  0  0  0  0  0  0  0  0  0  0
    1.2429   -1.5471   28.8995 C   0  0  0  0  0  0  0  0  0  0  0  0
    0.9736   -6.5128   36.7056 C   0  0  0  0  0  0  0  0  0  0  0  0
    1.6092   -7.1164   37.7912 C   0  0  0  0  0  0  0  0  0  0  0  0
    0.8811   -8.0133   38.5220 O   0  0  0  0  0  0  0  0  0  0  0  0
    0.4360   -7.4291   39.7453 C   0  0  0  0  0  0  0  0  0  0  0  0
    3.6261   -9.2034   38.0594 H   0  0  0  0  0  0  0  0  0  0  0  0
    4.5578   -9.1514   39.5591 H   0  0  0  0  0  0  0  0  0  0  0  0
    2.7980   -9.1834   39.6613 H   0  0  0  0  0  0  0  0  0  0  0  0
    4.6063   -5.5335   37.6024 H   0  0  0  0  0  0  0  0  0  0  0  0
    3.4446   -4.3664   35.7570 H   0  0  0  0  0  0  0  0  0  0  0  0
   -0.2928   -3.6871   36.4223 H   0  0  0  0  0  0  0  0  0  0  0  0
   -1.8169   -2.6109   34.8425 H   0  0  0  0  0  0  0  0  0  0  0  0
   -0.1864   -5.6448   29.6464 H   0  0  0  0  0  0  0  0  0  0  0  0
    1.2385   -5.4561   30.3672 H   0  0  0  0  0  0  0  0  0  0  0  0
    3.0209   -5.8582   33.6515 H   0  0  0  0  0  0  0  0  0  0  0  0
    2.0849   -6.2932   32.2212 H   0  0  0  0  0  0  0  0  0  0  0  0
    3.0746   -3.5148   32.8332 H   0  0  0  0  0  0  0  0  0  0  0  0
    5.4088   -2.8523   30.0472 H   0  0  0  0  0  0  0  0  0  0  0  0
    5.2630   -3.3423   31.6914 H   0  0  0  0  0  0  0  0  0  0  0  0
    5.3303   -1.6401   31.4461 H   0  0  0  0  0  0  0  0  0  0  0  0
    3.8877   -1.9893   28.9727 H   0  0  0  0  0  0  0  0  0  0  0  0
    4.2312   -0.6944   30.1986 H   0  0  0  0  0  0  0  0  0  0  0  0
    2.6141    0.8465   30.8960 H   0  0  0  0  0  0  0  0  0  0  0  0
    0.4417    1.9183   30.4398 H   0  0  0  0  0  0  0  0  0  0  0  0
   -1.2364    0.7837   29.0010 H   0  0  0  0  0  0  0  0  0  0  0  0
   -0.7334   -1.4371   28.0359 H   0  0  0  0  0  0  0  0  0  0  0  0
    1.4398   -2.5230   28.4621 H   0  0  0  0  0  0  0  0  0  0  0  0
   -0.0541   -6.7941   36.4795 H   0  0  0  0  0  0  0  0  0  0  0  0
   -0.1845   -6.5460   39.5559 H   0  0  0  0  0  0  0  0  0  0  0  0
    1.2746   -7.1700   40.3995 H   0  0  0  0  0  0  0  0  0  0  0  0
   -0.1791   -8.1701   40.2644 H   0  0  0  0  0  0  0  0  0  0  0  0
  1  2  1  0
  2  3  1  0
  3  4  2  0
  4  5  1  0
  5  6  2  0
  6  7  1  0
  7  8  1  0
  8  9  2  0
  9 10  1  0
 10 11  2  0
 11 12  1  0
 12 13  2  0
 13 14  1  0
 13 15  1  0
 15 16  1  0
 16 17  1  0
 17 18  1  0
 18 19  1  0
 19 20  2  0
 19 21  1  0
 21 22  1  0
 21 23  1  0
 23 24  1  0
 24 25  2  0
 25 26  1  0
 26 27  2  0
 27 28  1  0
 28 29  2  0
  6 30  1  0
 30 31  2  0
 31 32  1  0
 32 33  1  0
 31  3  1  0
 16  7  2  0
 29 24  1  0
 15 10  1  0
  1 34  1  0
  1 35  1  0
  1 36  1  0
  4 37  1  0
  5 38  1  0
  8 39  1  0
  9 40  1  0
 14 41  1  0
 14 42  1  0
 17 43  1  0
 17 44  1  0
 18 45  1  0
 22 46  1  0
 22 47  1  0
 22 48  1  0
 23 49  1  0
 23 50  1  0
 25 51  1  0
 26 52  1  0
 27 53  1  0
 28 54  1  0
 29 55  1  0
 30 56  1  0
 33 57  1  0
 33 58  1  0
 33 59  1  0
M  END
>  <Energy>  (935) 
73.467193146869064

>  <compound_id>  (935) 
3750

>  <target_id>  (935) 
1

>  <reference_id>  (935) 
131

>  <inspiration_ids>  (935) 
[131, 159]

>  <energy_score>  (935) 
13.155795951176856

>  <distance_score>  (935) 
3.4606573311087594

>  <path>  (935) 
/opt/xchem-fragalysis-2/maxwin/BulkDock/SCRATCH/505734/C3750-P131/C3750-P131.minimised.mol

>  <scratch_subdir>  (935) 
/opt/xchem-fragalysis-2/maxwin/BulkDock/SCRATCH/505734/C3750-P131

>  <fragmenstein_runtime>  (935) 
12.737963676452637

>  <fragmenstein_outcome>  (935) 
too moved

>  <fragmenstein_mode>  (935) 
expansion

>  <fragmenstein_error>  (935) 


$$$$
C3750-P159
     RDKit          3D

 59 62  0  0  0  0  0  0  0  0999 V2000
    4.3085   -7.0648   39.9370 C   0  0  0  0  0  0  0  0  0  0  0  0
    2.9645   -7.1103   39.4772 O   0  0  0  0  0  0  0  0  0  0  0  0
    2.5693   -6.2329   38.5057 C   0  0  0  0  0  0  0  0  0  0  0  0
    3.4484   -5.3218   37.9031 C   0  0  0  0  0  0  0  0  0  0  0  0
    3.0212   -4.4750   36.8749 C   0  0  0  0  0  0  0  0  0  0  0  0
    1.6987   -4.5030   36.4283 C   0  0  0  0  0  0  0  0  0  0  0  0
    1.3397   -3.7321   35.2008 C   0  0  0  0  0  0  0  0  0  0  0  0
    0.0031   -3.1288   35.0242 C   0  0  0  0  0  0  0  0  0  0  0  0
   -0.8465   -3.5813   34.0750 C   0  0  0  0  0  0  0  0  0  0  0  0
   -0.4959   -4.7581   33.3575 C   0  0  0  0  0  0  0  0  0  0  0  0
   -1.1482   -5.6847   32.6846 N   0  0  0  0  0  0  0  0  0  0  0  0
   -0.3897   -6.8389   32.7799 N   0  0  0  0  0  0  0  0  0  0  0  0
    0.7048   -6.5277   33.4440 C   0  0  0  0  0  0  0  0  0  0  0  0
    1.5007   -7.3358   34.2022 N   0  0  0  0  0  0  0  0  0  0  0  0
    0.8294   -5.1495   33.4595 N   0  0  0  0  0  0  0  0  0  0  0  0
    1.8108   -4.3464   34.0762 C   0  0  0  0  0  0  0  0  0  0  0  0
    2.6040   -3.4676   33.0952 C   0  0  0  0  0  0  0  0  0  0  0  0
    1.8928   -3.1647   31.8684 N   0  0  0  0  0  0  0  0  0  0  0  0
    0.8116   -2.2132   31.5982 C   0  0  0  0  0  0  0  0  0  0  0  0
    0.2077   -1.5200   32.3293 O   0  0  0  0  0  0  0  0  0  0  0  0
    0.6388   -2.4519   30.1607 N   0  0  0  0  0  0  0  0  0  0  0  0
   -0.2918   -3.6211   29.9358 C   0  0  0  0  0  0  0  0  0  0  0  0
   -0.2989   -1.7938   29.1532 C   0  0  0  0  0  0  0  0  0  0  0  0
   -0.0791   -0.2910   28.9746 C   0  0  0  0  0  0  0  0  0  0  0  0
    0.9746    0.4283   29.5446 C   0  0  0  0  0  0  0  0  0  0  0  0
    1.0633    1.8130   29.3701 C   0  0  0  0  0  0  0  0  0  0  0  0
    0.1098    2.4925   28.6143 C   0  0  0  0  0  0  0  0  0  0  0  0
   -0.9300    1.7886   28.0166 C   0  0  0  0  0  0  0  0  0  0  0  0
   -1.0181    0.4076   28.1886 C   0  0  0  0  0  0  0  0  0  0  0  0
    0.8067   -5.3876   37.0566 C   0  0  0  0  0  0  0  0  0  0  0  0
    1.2278   -6.2599   38.0821 C   0  0  0  0  0  0  0  0  0  0  0  0
    0.2158   -7.0763   38.5263 O   0  0  0  0  0  0  0  0  0  0  0  0
    0.4967   -8.0254   39.5520 C   0  0  0  0  0  0  0  0  0  0  0  0
    4.5447   -6.0900   40.3772 H   0  0  0  0  0  0  0  0  0  0  0  0
    4.4168   -7.8180   40.7226 H   0  0  0  0  0  0  0  0  0  0  0  0
    5.0086   -7.3187   39.1338 H   0  0  0  0  0  0  0  0  0  0  0  0
    4.4907   -5.2548   38.1989 H   0  0  0  0  0  0  0  0  0  0  0  0
    3.7437   -3.8018   36.4161 H   0  0  0  0  0  0  0  0  0  0  0  0
   -0.2383   -2.2539   35.6200 H   0  0  0  0  0  0  0  0  0  0  0  0
   -1.7929   -3.0892   33.8926 H   0  0  0  0  0  0  0  0  0  0  0  0
    0.9203   -7.9883   34.7355 H   0  0  0  0  0  0  0  0  0  0  0  0
    2.0825   -6.8496   34.8886 H   0  0  0  0  0  0  0  0  0  0  0  0
    3.5297   -3.9854   32.8235 H   0  0  0  0  0  0  0  0  0  0  0  0
    2.8727   -2.5109   33.5577 H   0  0  0  0  0  0  0  0  0  0  0  0
    2.2394   -3.5304   30.9913 H   0  0  0  0  0  0  0  0  0  0  0  0
    0.1803   -4.4746   30.4415 H   0  0  0  0  0  0  0  0  0  0  0  0
   -0.3818   -3.9801   28.9013 H   0  0  0  0  0  0  0  0  0  0  0  0
   -1.2527   -3.5116   30.4604 H   0  0  0  0  0  0  0  0  0  0  0  0
   -1.3554   -1.8239   29.4721 H   0  0  0  0  0  0  0  0  0  0  0  0
   -0.1310   -2.2078   28.1507 H   0  0  0  0  0  0  0  0  0  0  0  0
    1.7307   -0.0688   30.1431 H   0  0  0  0  0  0  0  0  0  0  0  0
    1.8753    2.3658   29.8350 H   0  0  0  0  0  0  0  0  0  0  0  0
    0.1699    3.5722   28.4973 H   0  0  0  0  0  0  0  0  0  0  0  0
   -1.6791    2.3158   27.4306 H   0  0  0  0  0  0  0  0  0  0  0  0
   -1.8353   -0.1295   27.7087 H   0  0  0  0  0  0  0  0  0  0  0  0
   -0.2305   -5.4436   36.7260 H   0  0  0  0  0  0  0  0  0  0  0  0
    0.8101   -7.5281   40.4758 H   0  0  0  0  0  0  0  0  0  0  0  0
    1.2186   -8.7755   39.2107 H   0  0  0  0  0  0  0  0  0  0  0  0
   -0.4302   -8.5596   39.7851 H   0  0  0  0  0  0  0  0  0  0  0  0
  1  2  1  0
  2  3  1  0
  3  4  2  0
  4  5  1  0
  5  6  2  0
  6  7  1  0
  7  8  1  0
  8  9  2  0
  9 10  1  0
 10 11  2  0
 11 12  1  0
 12 13  2  0
 13 14  1  0
 13 15  1  0
 15 16  1  0
 16 17  1  0
 17 18  1  0
 18 19  1  0
 19 20  2  0
 19 21  1  0
 21 22  1  0
 21 23  1  0
 23 24  1  0
 24 25  2  0
 25 26  1  0
 26 27  2  0
 27 28  1  0
 28 29  2  0
  6 30  1  0
 30 31  2  0
 31 32  1  0
 32 33  1  0
 31  3  1  0
 16  7  2  0
 29 24  1  0
 15 10  1  0
  1 34  1  0
  1 35  1  0
  1 36  1  0
  4 37  1  0
  5 38  1  0
  8 39  1  0
  9 40  1  0
 14 41  1  0
 14 42  1  0
 17 43  1  0
 17 44  1  0
 18 45  1  0
 22 46  1  0
 22 47  1  0
 22 48  1  0
 23 49  1  0
 23 50  1  0
 25 51  1  0
 26 52  1  0
 27 53  1  0
 28 54  1  0
 29 55  1  0
 30 56  1  0
 33 57  1  0
 33 58  1  0
 33 59  1  0
M  END
>  <Energy>  (936) 
152.52723005559363

>  <compound_id>  (936) 
3750

>  <target_id>  (936) 
1

>  <reference_id>  (936) 
159

>  <inspiration_ids>  (936) 
[131, 159]

>  <energy_score>  (936) 
92.21583285989817

>  <distance_score>  (936) 
2.4130428923766094

>  <path>  (936) 
/opt/xchem-fragalysis-2/maxwin/BulkDock/SCRATCH/505734/C3750-P159/C3750-P159.minimised.mol

>  <scratch_subdir>  (936) 
/opt/xchem-fragalysis-2/maxwin/BulkDock/SCRATCH/505734/C3750-P159

>  <fragmenstein_runtime>  (936) 
8.647108793258667

>  <fragmenstein_outcome>  (936) 
too moved

>  <fragmenstein_mode>  (936) 
expansion

>  <fragmenstein_error>  (936) 


$$$$
C3813-P131
     RDKit          3D

 38 40  0  0  0  0  0  0  0  0999 V2000
    2.7366   -3.5638   34.1797 C   0  0  0  0  0  0  0  0  0  0  0  0
    2.2664   -2.2086   33.8103 N   0  0  0  0  0  0  0  0  0  0  0  0
    1.1017   -1.9483   34.5641 O   0  0  0  0  0  0  0  0  0  0  0  0
    2.1672   -2.0177   32.3778 C   0  0  0  0  0  0  0  0  0  0  0  0
    2.9961   -2.7660   31.5447 C   0  0  0  0  0  0  0  0  0  0  0  0
    2.3534   -3.6590   30.7181 C   0  0  0  0  0  0  0  0  0  0  0  0
    0.9558   -3.6537   30.7541 C   0  0  0  0  0  0  0  0  0  0  0  0
    0.3106   -4.9582   30.9313 C   0  0  0  0  0  0  0  0  0  0  0  0
    0.5158   -6.0472   30.0081 C   0  0  0  0  0  0  0  0  0  0  0  0
    0.0079   -7.2678   30.2265 C   0  0  0  0  0  0  0  0  0  0  0  0
   -0.7239   -7.5204   31.3914 C   0  0  0  0  0  0  0  0  0  0  0  0
   -1.4077   -8.5591   31.7871 N   0  0  0  0  0  0  0  0  0  0  0  0
   -1.7108   -8.3407   33.1047 N   0  0  0  0  0  0  0  0  0  0  0  0
   -1.2153   -7.1831   33.4722 C   0  0  0  0  0  0  0  0  0  0  0  0
   -1.1624   -6.6723   34.7185 N   0  0  0  0  0  0  0  0  0  0  0  0
   -0.7130   -6.5449   32.3629 N   0  0  0  0  0  0  0  0  0  0  0  0
   -0.2261   -5.2616   32.1396 C   0  0  0  0  0  0  0  0  0  0  0  0
    0.2694   -2.4929   31.1225 C   0  0  0  0  0  0  0  0  0  0  0  0
    0.9501   -1.5452   31.8563 C   0  0  0  0  0  0  0  0  0  0  0  0
    0.3578   -0.3224   32.2586 N   0  0  0  0  0  0  0  0  0  0  0  0
    1.3177    0.7924   32.1812 C   0  0  0  0  0  0  0  0  0  0  0  0
   -0.8438    0.0530   31.6378 O   0  0  0  0  0  0  0  0  0  0  0  0
    2.7194   -3.6642   35.2716 H   0  0  0  0  0  0  0  0  0  0  0  0
    2.0954   -4.3494   33.7687 H   0  0  0  0  0  0  0  0  0  0  0  0
    3.7764   -3.7284   33.8793 H   0  0  0  0  0  0  0  0  0  0  0  0
    0.8386   -1.0545   34.2656 H   0  0  0  0  0  0  0  0  0  0  0  0
    4.0408   -2.9332   31.7891 H   0  0  0  0  0  0  0  0  0  0  0  0
    2.9158   -4.5006   30.3248 H   0  0  0  0  0  0  0  0  0  0  0  0
    1.1625   -5.8592   29.1580 H   0  0  0  0  0  0  0  0  0  0  0  0
    0.2183   -8.1258   29.6014 H   0  0  0  0  0  0  0  0  0  0  0  0
   -1.4928   -5.7151   34.8467 H   0  0  0  0  0  0  0  0  0  0  0  0
   -1.5494   -7.2954   35.4248 H   0  0  0  0  0  0  0  0  0  0  0  0
   -0.2949   -4.5666   32.9688 H   0  0  0  0  0  0  0  0  0  0  0  0
   -0.7971   -2.4095   30.9471 H   0  0  0  0  0  0  0  0  0  0  0  0
    1.6931    0.9231   31.1597 H   0  0  0  0  0  0  0  0  0  0  0  0
    2.1620    0.6500   32.8641 H   0  0  0  0  0  0  0  0  0  0  0  0
    0.8225    1.7229   32.4812 H   0  0  0  0  0  0  0  0  0  0  0  0
   -1.5007   -0.5180   32.0755 H   0  0  0  0  0  0  0  0  0  0  0  0
  1  2  1  0
  2  3  1  0
  2  4  1  0
  4  5  2  0
  5  6  1  0
  6  7  2  0
  7  8  1  0
  8  9  1  0
  9 10  2  0
 10 11  1  0
 11 12  2  0
 12 13  1  0
 13 14  2  0
 14 15  1  0
 14 16  1  0
 16 17  1  0
  7 18  1  0
 18 19  2  0
 19 20  1  0
 20 21  1  0
 20 22  1  0
 19  4  1  0
 17  8  2  0
 16 11  1  0
  1 23  1  0
  1 24  1  0
  1 25  1  0
  3 26  1  0
  5 27  1  0
  6 28  1  0
  9 29  1  0
 10 30  1  0
 15 31  1  0
 15 32  1  0
 17 33  1  0
 18 34  1  0
 21 35  1  0
 21 36  1  0
 21 37  1  0
 22 38  1  0
M  END
>  <Energy>  (937) 
156.34324687679464

>  <compound_id>  (937) 
3813

>  <target_id>  (937) 
1

>  <reference_id>  (937) 
131

>  <inspiration_ids>  (937) 
[131, 163]

>  <energy_score>  (937) 
-5.344740470923568

>  <distance_score>  (937) 
2.224283432409604

>  <path>  (937) 
/opt/xchem-fragalysis-2/maxwin/BulkDock/SCRATCH/505734/C3813-P131/C3813-P131.minimised.mol

>  <scratch_subdir>  (937) 
/opt/xchem-fragalysis-2/maxwin/BulkDock/SCRATCH/505734/C3813-P131

>  <fragmenstein_runtime>  (937) 
2.6481423377990723

>  <fragmenstein_outcome>  (937) 
too moved

>  <fragmenstein_mode>  (937) 
expansion

>  <fragmenstein_error>  (937) 


$$$$
C3813-P163
     RDKit          3D

 38 40  0  0  0  0  0  0  0  0999 V2000
    2.4760   -3.4767   34.3655 C   0  0  0  0  0  0  0  0  0  0  0  0
    1.9281   -2.1963   33.8629 N   0  0  0  0  0  0  0  0  0  0  0  0
    0.6408   -2.0487   34.4270 O   0  0  0  0  0  0  0  0  0  0  0  0
    2.0251   -2.0575   32.4343 C   0  0  0  0  0  0  0  0  0  0  0  0
    2.9824   -2.7997   31.7401 C   0  0  0  0  0  0  0  0  0  0  0  0
    2.4994   -3.6828   30.7982 C   0  0  0  0  0  0  0  0  0  0  0  0
    1.1185   -3.6870   30.6064 C   0  0  0  0  0  0  0  0  0  0  0  0
    0.4579   -4.9838   30.8052 C   0  0  0  0  0  0  0  0  0  0  0  0
    0.7029   -6.1135   29.9448 C   0  0  0  0  0  0  0  0  0  0  0  0
    0.1612   -7.3166   30.1864 C   0  0  0  0  0  0  0  0  0  0  0  0
   -0.6475   -7.5085   31.3122 C   0  0  0  0  0  0  0  0  0  0  0  0
   -1.3820   -8.5137   31.7074 N   0  0  0  0  0  0  0  0  0  0  0  0
   -1.7369   -8.2455   33.0030 N   0  0  0  0  0  0  0  0  0  0  0  0
   -1.2319   -7.0853   33.3516 C   0  0  0  0  0  0  0  0  0  0  0  0
   -1.2270   -6.5287   34.5807 N   0  0  0  0  0  0  0  0  0  0  0  0
   -0.6672   -6.4963   32.2447 N   0  0  0  0  0  0  0  0  0  0  0  0
   -0.1493   -5.2302   31.9942 C   0  0  0  0  0  0  0  0  0  0  0  0
    0.3925   -2.5191   30.8337 C   0  0  0  0  0  0  0  0  0  0  0  0
    0.9234   -1.5892   31.7053 C   0  0  0  0  0  0  0  0  0  0  0  0
    0.2320   -0.3779   31.9446 N   0  0  0  0  0  0  0  0  0  0  0  0
    0.3948    0.5229   30.7918 C   0  0  0  0  0  0  0  0  0  0  0  0
    0.4647    0.3366   33.1140 O   0  0  0  0  0  0  0  0  0  0  0  0
    2.2875   -3.5510   35.4434 H   0  0  0  0  0  0  0  0  0  0  0  0
    2.0063   -4.3438   33.8904 H   0  0  0  0  0  0  0  0  0  0  0  0
    3.5634   -3.5230   34.2480 H   0  0  0  0  0  0  0  0  0  0  0  0
    0.2918   -1.2277   34.0131 H   0  0  0  0  0  0  0  0  0  0  0  0
    3.9749   -2.9672   32.1478 H   0  0  0  0  0  0  0  0  0  0  0  0
    3.1215   -4.5252   30.5089 H   0  0  0  0  0  0  0  0  0  0  0  0
    1.3940   -5.9732   29.1191 H   0  0  0  0  0  0  0  0  0  0  0  0
    0.3951   -8.1996   29.6013 H   0  0  0  0  0  0  0  0  0  0  0  0
   -1.5843   -5.5706   34.6403 H   0  0  0  0  0  0  0  0  0  0  0  0
   -1.6908   -7.1061   35.2755 H   0  0  0  0  0  0  0  0  0  0  0  0
   -0.2586   -4.4976   32.7864 H   0  0  0  0  0  0  0  0  0  0  0  0
   -0.6391   -2.4267   30.5040 H   0  0  0  0  0  0  0  0  0  0  0  0
   -0.0052    0.0794   29.8731 H   0  0  0  0  0  0  0  0  0  0  0  0
    1.4480    0.7849   30.6363 H   0  0  0  0  0  0  0  0  0  0  0  0
   -0.1614    1.4498   30.9675 H   0  0  0  0  0  0  0  0  0  0  0  0
    1.4412    0.3873   33.1782 H   0  0  0  0  0  0  0  0  0  0  0  0
  1  2  1  0
  2  3  1  0
  2  4  1  0
  4  5  2  0
  5  6  1  0
  6  7  2  0
  7  8  1  0
  8  9  1  0
  9 10  2  0
 10 11  1  0
 11 12  2  0
 12 13  1  0
 13 14  2  0
 14 15  1  0
 14 16  1  0
 16 17  1  0
  7 18  1  0
 18 19  2  0
 19 20  1  0
 20 21  1  0
 20 22  1  0
 19  4  1  0
 17  8  2  0
 16 11  1  0
  1 23  1  0
  1 24  1  0
  1 25  1  0
  3 26  1  0
  5 27  1  0
  6 28  1  0
  9 29  1  0
 10 30  1  0
 15 31  1  0
 15 32  1  0
 17 33  1  0
 18 34  1  0
 21 35  1  0
 21 36  1  0
 21 37  1  0
 22 38  1  0
M  END
>  <Energy>  (938) 
160.35193305065425

>  <compound_id>  (938) 
3813

>  <target_id>  (938) 
1

>  <reference_id>  (938) 
163

>  <inspiration_ids>  (938) 
[131, 163]

>  <energy_score>  (938) 
-1.336054297064777

>  <distance_score>  (938) 
2.350041352143185

>  <path>  (938) 
/opt/xchem-fragalysis-2/maxwin/BulkDock/SCRATCH/505734/C3813-P163/C3813-P163.minimised.mol

>  <scratch_subdir>  (938) 
/opt/xchem-fragalysis-2/maxwin/BulkDock/SCRATCH/505734/C3813-P163

>  <fragmenstein_runtime>  (938) 
2.5459299087524414

>  <fragmenstein_outcome>  (938) 
too moved

>  <fragmenstein_mode>  (938) 
expansion

>  <fragmenstein_error>  (938) 


$$$$
C3814-P131
     RDKit          3D

 54 57  0  0  0  0  0  0  0  0999 V2000
    2.1827   -4.1892   40.5708 C   0  0  0  0  0  0  0  0  0  0  0  0
    2.3815   -5.3500   39.7753 O   0  0  0  0  0  0  0  0  0  0  0  0
    1.7372   -5.4072   38.5699 C   0  0  0  0  0  0  0  0  0  0  0  0
    2.2914   -6.3386   37.6924 C   0  0  0  0  0  0  0  0  0  0  0  0
    1.7646   -6.5141   36.4116 C   0  0  0  0  0  0  0  0  0  0  0  0
    0.6678   -5.7570   35.9770 C   0  0  0  0  0  0  0  0  0  0  0  0
    0.1056   -6.0132   34.6318 C   0  0  0  0  0  0  0  0  0  0  0  0
   -0.5166   -7.3304   34.4015 C   0  0  0  0  0  0  0  0  0  0  0  0
   -0.8222   -7.7768   33.1760 C   0  0  0  0  0  0  0  0  0  0  0  0
   -0.5170   -6.9755   32.0688 C   0  0  0  0  0  0  0  0  0  0  0  0
   -0.4491   -7.2383   30.7868 N   0  0  0  0  0  0  0  0  0  0  0  0
   -0.2560   -6.0428   30.1526 N   0  0  0  0  0  0  0  0  0  0  0  0
   -0.3238   -5.0852   31.0513 C   0  0  0  0  0  0  0  0  0  0  0  0
   -0.6209   -3.7975   30.8200 N   0  0  0  0  0  0  0  0  0  0  0  0
   -0.1988   -5.6459   32.3092 N   0  0  0  0  0  0  0  0  0  0  0  0
    0.1537   -5.1446   33.5769 C   0  0  0  0  0  0  0  0  0  0  0  0
    0.6372   -3.7209   33.7283 C   0  0  0  0  0  0  0  0  0  0  0  0
    0.0826   -2.9960   34.5084 O   0  0  0  0  0  0  0  0  0  0  0  0
    1.6779   -3.4513   32.7920 N   0  0  0  0  0  0  0  0  0  0  0  0
    3.0212   -3.6915   33.4278 C   0  0  0  0  0  0  0  0  0  0  0  0
    2.3454   -2.1385   32.3961 C   0  0  0  0  0  0  0  0  0  0  0  0
    1.3776   -1.3408   31.5051 C   0  0  0  0  0  0  0  0  0  0  0  0
    0.3311   -0.6046   32.0794 C   0  0  0  0  0  0  0  0  0  0  0  0
   -0.5843    0.0741   31.2726 C   0  0  0  0  0  0  0  0  0  0  0  0
   -0.4645    0.0400   29.8846 C   0  0  0  0  0  0  0  0  0  0  0  0
    0.5707   -0.6833   29.2988 C   0  0  0  0  0  0  0  0  0  0  0  0
    1.4857   -1.3716   30.1029 C   0  0  0  0  0  0  0  0  0  0  0  0
    0.0853   -4.8593   36.8639 C   0  0  0  0  0  0  0  0  0  0  0  0
    0.6058   -4.6964   38.1564 C   0  0  0  0  0  0  0  0  0  0  0  0
   -0.0057   -3.8112   38.9998 O   0  0  0  0  0  0  0  0  0  0  0  0
   -1.3468   -4.2151   39.2704 C   0  0  0  0  0  0  0  0  0  0  0  0
    1.2197   -4.2330   41.0877 H   0  0  0  0  0  0  0  0  0  0  0  0
    2.2926   -3.2686   39.9878 H   0  0  0  0  0  0  0  0  0  0  0  0
    2.9614   -4.1806   41.3402 H   0  0  0  0  0  0  0  0  0  0  0  0
    3.1450   -6.9323   38.0101 H   0  0  0  0  0  0  0  0  0  0  0  0
    2.2163   -7.2559   35.7581 H   0  0  0  0  0  0  0  0  0  0  0  0
   -0.7544   -7.9471   35.2692 H   0  0  0  0  0  0  0  0  0  0  0  0
   -1.3133   -8.7241   33.0088 H   0  0  0  0  0  0  0  0  0  0  0  0
   -0.3915   -3.0690   31.4874 H   0  0  0  0  0  0  0  0  0  0  0  0
   -0.5617   -3.4664   29.8582 H   0  0  0  0  0  0  0  0  0  0  0  0
    3.2439   -3.0431   34.2892 H   0  0  0  0  0  0  0  0  0  0  0  0
    2.9542   -4.6913   33.8826 H   0  0  0  0  0  0  0  0  0  0  0  0
    3.8527   -3.8078   32.7174 H   0  0  0  0  0  0  0  0  0  0  0  0
    3.2488   -2.2536   31.7762 H   0  0  0  0  0  0  0  0  0  0  0  0
    2.5289   -1.4814   33.2618 H   0  0  0  0  0  0  0  0  0  0  0  0
    0.2078   -0.5776   33.1614 H   0  0  0  0  0  0  0  0  0  0  0  0
   -1.4028    0.6166   31.7331 H   0  0  0  0  0  0  0  0  0  0  0  0
   -1.1840    0.5631   29.2579 H   0  0  0  0  0  0  0  0  0  0  0  0
    0.6531   -0.7260   28.2144 H   0  0  0  0  0  0  0  0  0  0  0  0
    2.2736   -1.9487   29.6241 H   0  0  0  0  0  0  0  0  0  0  0  0
   -0.7778   -4.2759   36.5499 H   0  0  0  0  0  0  0  0  0  0  0  0
   -1.6688   -3.7057   40.1838 H   0  0  0  0  0  0  0  0  0  0  0  0
   -1.4191   -5.2942   39.4472 H   0  0  0  0  0  0  0  0  0  0  0  0
   -2.0126   -3.8982   38.4624 H   0  0  0  0  0  0  0  0  0  0  0  0
  1  2  1  0
  2  3  1  0
  3  4  2  0
  4  5  1  0
  5  6  2  0
  6  7  1  0
  7  8  1  0
  8  9  2  0
  9 10  1  0
 10 11  2  0
 11 12  1  0
 12 13  2  0
 13 14  1  0
 13 15  1  0
 15 16  1  0
 16 17  1  0
 17 18  2  0
 17 19  1  0
 19 20  1  0
 19 21  1  0
 21 22  1  0
 22 23  2  0
 23 24  1  0
 24 25  2  0
 25 26  1  0
 26 27  2  0
  6 28  1  0
 28 29  2  0
 29 30  1  0
 30 31  1  0
 29  3  1  0
 16  7  2  0
 27 22  1  0
 15 10  1  0
  1 32  1  0
  1 33  1  0
  1 34  1  0
  4 35  1  0
  5 36  1  0
  8 37  1  0
  9 38  1  0
 14 39  1  0
 14 40  1  0
 20 41  1  0
 20 42  1  0
 20 43  1  0
 21 44  1  0
 21 45  1  0
 23 46  1  0
 24 47  1  0
 25 48  1  0
 26 49  1  0
 27 50  1  0
 28 51  1  0
 31 52  1  0
 31 53  1  0
 31 54  1  0
M  END
>  <Energy>  (939) 
133.84683346663448

>  <compound_id>  (939) 
3814

>  <target_id>  (939) 
1

>  <reference_id>  (939) 
131

>  <inspiration_ids>  (939) 
[131, 164]

>  <energy_score>  (939) 
21.57314979486614

>  <distance_score>  (939) 
3.3818045002662944

>  <path>  (939) 
/opt/xchem-fragalysis-2/maxwin/BulkDock/SCRATCH/505734/C3814-P131/C3814-P131.minimised.mol

>  <scratch_subdir>  (939) 
/opt/xchem-fragalysis-2/maxwin/BulkDock/SCRATCH/505734/C3814-P131

>  <fragmenstein_runtime>  (939) 
19.18852925300598

>  <fragmenstein_outcome>  (939) 
too moved

>  <fragmenstein_mode>  (939) 
expansion

>  <fragmenstein_error>  (939) 


$$$$
C3814-P164
     RDKit          3D

 54 57  0  0  0  0  0  0  0  0999 V2000
   -0.7492   -4.5038   40.4039 C   0  0  0  0  0  0  0  0  0  0  0  0
    0.2233   -5.2747   39.7026 O   0  0  0  0  0  0  0  0  0  0  0  0
   -0.0150   -5.4162   38.3645 C   0  0  0  0  0  0  0  0  0  0  0  0
    0.2946   -6.6619   37.8360 C   0  0  0  0  0  0  0  0  0  0  0  0
    0.1214   -6.9027   36.4698 C   0  0  0  0  0  0  0  0  0  0  0  0
   -0.3800   -5.9125   35.5981 C   0  0  0  0  0  0  0  0  0  0  0  0
   -0.5181   -6.2460   34.1553 C   0  0  0  0  0  0  0  0  0  0  0  0
   -1.1866   -7.5114   33.7899 C   0  0  0  0  0  0  0  0  0  0  0  0
   -1.1814   -8.0152   32.5466 C   0  0  0  0  0  0  0  0  0  0  0  0
   -0.4097   -7.3777   31.5602 C   0  0  0  0  0  0  0  0  0  0  0  0
   -0.1052   -7.7138   30.3318 N   0  0  0  0  0  0  0  0  0  0  0  0
    0.7625   -6.7694   29.8526 N   0  0  0  0  0  0  0  0  0  0  0  0
    0.9242   -5.8400   30.7642 C   0  0  0  0  0  0  0  0  0  0  0  0
    1.7262   -4.7641   30.6654 N   0  0  0  0  0  0  0  0  0  0  0  0
    0.1708   -6.1651   31.8858 N   0  0  0  0  0  0  0  0  0  0  0  0
    0.0001   -5.5193   33.1243 C   0  0  0  0  0  0  0  0  0  0  0  0
    0.3456   -4.0571   33.1504 C   0  0  0  0  0  0  0  0  0  0  0  0
    1.4891   -3.6972   33.2412 O   0  0  0  0  0  0  0  0  0  0  0  0
   -0.8614   -3.2997   32.9565 N   0  0  0  0  0  0  0  0  0  0  0  0
   -1.1610   -3.1657   31.4865 C   0  0  0  0  0  0  0  0  0  0  0  0
   -1.0968   -1.7811   32.9173 C   0  0  0  0  0  0  0  0  0  0  0  0
   -0.3645   -0.7893   32.0046 C   0  0  0  0  0  0  0  0  0  0  0  0
    1.0043   -0.5427   32.1474 C   0  0  0  0  0  0  0  0  0  0  0  0
    1.6588    0.3282   31.2709 C   0  0  0  0  0  0  0  0  0  0  0  0
    0.9602    0.9506   30.2362 C   0  0  0  0  0  0  0  0  0  0  0  0
   -0.4006    0.7133   30.0787 C   0  0  0  0  0  0  0  0  0  0  0  0
   -1.0629   -0.1331   30.9688 C   0  0  0  0  0  0  0  0  0  0  0  0
   -0.6930   -4.6742   36.1387 C   0  0  0  0  0  0  0  0  0  0  0  0
   -0.4599   -4.4175   37.4950 C   0  0  0  0  0  0  0  0  0  0  0  0
   -0.6497   -3.1315   37.9212 O   0  0  0  0  0  0  0  0  0  0  0  0
    0.5430   -2.3897   37.6613 C   0  0  0  0  0  0  0  0  0  0  0  0
   -0.4636   -3.4481   40.4114 H   0  0  0  0  0  0  0  0  0  0  0  0
   -0.7583   -4.8488   41.4425 H   0  0  0  0  0  0  0  0  0  0  0  0
   -1.7595   -4.6348   40.0037 H   0  0  0  0  0  0  0  0  0  0  0  0
    0.6726   -7.4505   38.4835 H   0  0  0  0  0  0  0  0  0  0  0  0
    0.3881   -7.8872   36.0930 H   0  0  0  0  0  0  0  0  0  0  0  0
   -1.7557   -8.0210   34.5648 H   0  0  0  0  0  0  0  0  0  0  0  0
   -1.7184   -8.9204   32.2925 H   0  0  0  0  0  0  0  0  0  0  0  0
    2.3493   -4.6977   29.8675 H   0  0  0  0  0  0  0  0  0  0  0  0
    2.0623   -4.2533   31.4866 H   0  0  0  0  0  0  0  0  0  0  0  0
   -0.3002   -2.8698   30.8734 H   0  0  0  0  0  0  0  0  0  0  0  0
   -2.1242   -2.7032   31.2208 H   0  0  0  0  0  0  0  0  0  0  0  0
   -1.3414   -4.1915   31.1485 H   0  0  0  0  0  0  0  0  0  0  0  0
   -0.7913   -1.4814   33.9323 H   0  0  0  0  0  0  0  0  0  0  0  0
   -2.1832   -1.5870   32.9320 H   0  0  0  0  0  0  0  0  0  0  0  0
    1.5746   -1.0358   32.9325 H   0  0  0  0  0  0  0  0  0  0  0  0
    2.7242    0.5121   31.3890 H   0  0  0  0  0  0  0  0  0  0  0  0
    1.4789    1.6169   29.5513 H   0  0  0  0  0  0  0  0  0  0  0  0
   -0.9461    1.1899   29.2666 H   0  0  0  0  0  0  0  0  0  0  0  0
   -2.1273   -0.3002   30.8250 H   0  0  0  0  0  0  0  0  0  0  0  0
   -1.1012   -3.8788   35.5236 H   0  0  0  0  0  0  0  0  0  0  0  0
    0.7189   -2.2797   36.5853 H   0  0  0  0  0  0  0  0  0  0  0  0
    1.4149   -2.8415   38.1483 H   0  0  0  0  0  0  0  0  0  0  0  0
    0.4080   -1.3881   38.0810 H   0  0  0  0  0  0  0  0  0  0  0  0
  1  2  1  0
  2  3  1  0
  3  4  2  0
  4  5  1  0
  5  6  2  0
  6  7  1  0
  7  8  1  0
  8  9  2  0
  9 10  1  0
 10 11  2  0
 11 12  1  0
 12 13  2  0
 13 14  1  0
 13 15  1  0
 15 16  1  0
 16 17  1  0
 17 18  2  0
 17 19  1  0
 19 20  1  0
 19 21  1  0
 21 22  1  0
 22 23  2  0
 23 24  1  0
 24 25  2  0
 25 26  1  0
 26 27  2  0
  6 28  1  0
 28 29  2  0
 29 30  1  0
 30 31  1  0
 29  3  1  0
 16  7  2  0
 27 22  1  0
 15 10  1  0
  1 32  1  0
  1 33  1  0
  1 34  1  0
  4 35  1  0
  5 36  1  0
  8 37  1  0
  9 38  1  0
 14 39  1  0
 14 40  1  0
 20 41  1  0
 20 42  1  0
 20 43  1  0
 21 44  1  0
 21 45  1  0
 23 46  1  0
 24 47  1  0
 25 48  1  0
 26 49  1  0
 27 50  1  0
 28 51  1  0
 31 52  1  0
 31 53  1  0
 31 54  1  0
M  END
>  <Energy>  (940) 
147.60329305803506

>  <compound_id>  (940) 
3814

>  <target_id>  (940) 
1

>  <reference_id>  (940) 
164

>  <inspiration_ids>  (940) 
[131, 164]

>  <energy_score>  (940) 
35.3296093862682

>  <distance_score>  (940) 
3.0213629056184392

>  <path>  (940) 
/opt/xchem-fragalysis-2/maxwin/BulkDock/SCRATCH/505734/C3814-P164/C3814-P164.minimised.mol

>  <scratch_subdir>  (940) 
/opt/xchem-fragalysis-2/maxwin/BulkDock/SCRATCH/505734/C3814-P164

>  <fragmenstein_runtime>  (940) 
17.97562026977539

>  <fragmenstein_outcome>  (940) 
too moved

>  <fragmenstein_mode>  (940) 
expansion

>  <fragmenstein_error>  (940) 


$$$$
C3814-P131
     RDKit          3D

 54 57  0  0  0  0  0  0  0  0999 V2000
    2.9824   -1.9790   37.6540 C   0  0  0  0  0  0  0  0  0  0  0  0
    3.5739   -1.8029   36.3747 O   0  0  0  0  0  0  0  0  0  0  0  0
    2.9791   -2.4021   35.2949 C   0  0  0  0  0  0  0  0  0  0  0  0
    3.4699   -1.9034   34.0743 C   0  0  0  0  0  0  0  0  0  0  0  0
    3.0029   -2.3716   32.8424 C   0  0  0  0  0  0  0  0  0  0  0  0
    2.0336   -3.3649   32.8122 C   0  0  0  0  0  0  0  0  0  0  0  0
    1.6108   -4.0397   31.5578 C   0  0  0  0  0  0  0  0  0  0  0  0
    2.5504   -4.5849   30.5698 C   0  0  0  0  0  0  0  0  0  0  0  0
    2.2162   -5.6217   29.7757 C   0  0  0  0  0  0  0  0  0  0  0  0
    1.0224   -6.3371   30.0551 C   0  0  0  0  0  0  0  0  0  0  0  0
    0.5625   -7.5110   29.6812 N   0  0  0  0  0  0  0  0  0  0  0  0
   -0.5174   -7.8081   30.4775 N   0  0  0  0  0  0  0  0  0  0  0  0
   -0.6684   -6.8179   31.3257 C   0  0  0  0  0  0  0  0  0  0  0  0
   -1.3530   -6.8299   32.4812 N   0  0  0  0  0  0  0  0  0  0  0  0
    0.1505   -5.7720   30.9508 N   0  0  0  0  0  0  0  0  0  0  0  0
    0.3450   -4.5176   31.5015 C   0  0  0  0  0  0  0  0  0  0  0  0
   -0.8270   -3.6066   31.6706 C   0  0  0  0  0  0  0  0  0  0  0  0
   -1.7896   -3.9592   32.2928 O   0  0  0  0  0  0  0  0  0  0  0  0
   -0.5918   -2.4160   30.9199 N   0  0  0  0  0  0  0  0  0  0  0  0
   -1.0083   -2.6198   29.4725 C   0  0  0  0  0  0  0  0  0  0  0  0
   -1.4288   -1.1729   30.7592 C   0  0  0  0  0  0  0  0  0  0  0  0
   -0.7302    0.0443   30.1785 C   0  0  0  0  0  0  0  0  0  0  0  0
    0.3846    0.5981   30.8206 C   0  0  0  0  0  0  0  0  0  0  0  0
    1.0090    1.7302   30.2947 C   0  0  0  0  0  0  0  0  0  0  0  0
    0.5314    2.3143   29.1217 C   0  0  0  0  0  0  0  0  0  0  0  0
   -0.5657    1.7630   28.4653 C   0  0  0  0  0  0  0  0  0  0  0  0
   -1.1917    0.6326   28.9891 C   0  0  0  0  0  0  0  0  0  0  0  0
    1.5610   -3.8791   34.0430 C   0  0  0  0  0  0  0  0  0  0  0  0
    2.0066   -3.4096   35.2839 C   0  0  0  0  0  0  0  0  0  0  0  0
    1.5617   -3.9297   36.4694 O   0  0  0  0  0  0  0  0  0  0  0  0
    0.4608   -4.8367   36.4435 C   0  0  0  0  0  0  0  0  0  0  0  0
    3.1706   -2.9867   38.0364 H   0  0  0  0  0  0  0  0  0  0  0  0
    1.9152   -1.7341   37.6452 H   0  0  0  0  0  0  0  0  0  0  0  0
    3.4690   -1.2784   38.3402 H   0  0  0  0  0  0  0  0  0  0  0  0
    4.2323   -1.1262   34.0907 H   0  0  0  0  0  0  0  0  0  0  0  0
    3.4138   -1.9585   31.9253 H   0  0  0  0  0  0  0  0  0  0  0  0
    3.4978   -4.0702   30.4345 H   0  0  0  0  0  0  0  0  0  0  0  0
    2.8861   -5.9848   29.0058 H   0  0  0  0  0  0  0  0  0  0  0  0
   -1.7049   -5.9572   32.8815 H   0  0  0  0  0  0  0  0  0  0  0  0
   -1.9773   -7.6213   32.6252 H   0  0  0  0  0  0  0  0  0  0  0  0
   -0.5532   -1.9235   28.7595 H   0  0  0  0  0  0  0  0  0  0  0  0
   -2.0804   -2.8002   29.3201 H   0  0  0  0  0  0  0  0  0  0  0  0
   -0.5647   -3.5777   29.1648 H   0  0  0  0  0  0  0  0  0  0  0  0
   -1.6030   -0.8931   31.8124 H   0  0  0  0  0  0  0  0  0  0  0  0
   -2.4771   -1.2981   30.4435 H   0  0  0  0  0  0  0  0  0  0  0  0
    0.7669    0.1523   31.7367 H   0  0  0  0  0  0  0  0  0  0  0  0
    1.8654    2.1646   30.8039 H   0  0  0  0  0  0  0  0  0  0  0  0
    1.0084    3.2063   28.7235 H   0  0  0  0  0  0  0  0  0  0  0  0
   -0.9450    2.2211   27.5549 H   0  0  0  0  0  0  0  0  0  0  0  0
   -2.0384    0.2129   28.4518 H   0  0  0  0  0  0  0  0  0  0  0  0
    0.8485   -4.6990   34.0185 H   0  0  0  0  0  0  0  0  0  0  0  0
    0.7472   -5.7852   35.9779 H   0  0  0  0  0  0  0  0  0  0  0  0
   -0.4106   -4.3936   35.9497 H   0  0  0  0  0  0  0  0  0  0  0  0
    0.1818   -5.0483   37.4803 H   0  0  0  0  0  0  0  0  0  0  0  0
  1  2  1  0
  2  3  1  0
  3  4  2  0
  4  5  1  0
  5  6  2  0
  6  7  1  0
  7  8  1  0
  8  9  2  0
  9 10  1  0
 10 11  2  0
 11 12  1  0
 12 13  2  0
 13 14  1  0
 13 15  1  0
 15 16  1  0
 16 17  1  0
 17 18  2  0
 17 19  1  0
 19 20  1  0
 19 21  1  0
 21 22  1  0
 22 23  2  0
 23 24  1  0
 24 25  2  0
 25 26  1  0
 26 27  2  0
  6 28  1  0
 28 29  2  0
 29 30  1  0
 30 31  1  0
 29  3  1  0
 16  7  2  0
 27 22  1  0
 15 10  1  0
  1 32  1  0
  1 33  1  0
  1 34  1  0
  4 35  1  0
  5 36  1  0
  8 37  1  0
  9 38  1  0
 14 39  1  0
 14 40  1  0
 20 41  1  0
 20 42  1  0
 20 43  1  0
 21 44  1  0
 21 45  1  0
 23 46  1  0
 24 47  1  0
 25 48  1  0
 26 49  1  0
 27 50  1  0
 28 51  1  0
 31 52  1  0
 31 53  1  0
 31 54  1  0
M  END
>  <Energy>  (941) 
163.04428610272288

>  <compound_id>  (941) 
3814

>  <target_id>  (941) 
1

>  <reference_id>  (941) 
131

>  <inspiration_ids>  (941) 
[131, 165]

>  <energy_score>  (941) 
50.77060243095383

>  <distance_score>  (941) 
2.6087742136825978

>  <path>  (941) 
/opt/xchem-fragalysis-2/maxwin/BulkDock/SCRATCH/505734/C3814-P131/C3814-P131.minimised.mol

>  <scratch_subdir>  (941) 
/opt/xchem-fragalysis-2/maxwin/BulkDock/SCRATCH/505734/C3814-P131

>  <fragmenstein_runtime>  (941) 
13.853342771530151

>  <fragmenstein_outcome>  (941) 
too moved

>  <fragmenstein_mode>  (941) 
expansion

>  <fragmenstein_error>  (941) 


$$$$
C3814-P165
     RDKit          3D

 54 57  0  0  0  0  0  0  0  0999 V2000
    6.5046   -6.2893   37.1263 C   0  0  0  0  0  0  0  0  0  0  0  0
    5.1585   -6.5533   36.7583 O   0  0  0  0  0  0  0  0  0  0  0  0
    4.6794   -5.9589   35.6186 C   0  0  0  0  0  0  0  0  0  0  0  0
    5.4495   -5.1721   34.7493 C   0  0  0  0  0  0  0  0  0  0  0  0
    4.8830   -4.5991   33.6031 C   0  0  0  0  0  0  0  0  0  0  0  0
    3.5390   -4.8147   33.3094 C   0  0  0  0  0  0  0  0  0  0  0  0
    2.9144   -4.1983   32.0971 C   0  0  0  0  0  0  0  0  0  0  0  0
    2.8316   -5.0098   30.8631 C   0  0  0  0  0  0  0  0  0  0  0  0
    1.6729   -5.5782   30.4782 C   0  0  0  0  0  0  0  0  0  0  0  0
    0.5212   -5.3358   31.2621 C   0  0  0  0  0  0  0  0  0  0  0  0
   -0.6392   -5.9345   31.3639 N   0  0  0  0  0  0  0  0  0  0  0  0
   -1.3640   -5.2525   32.3097 N   0  0  0  0  0  0  0  0  0  0  0  0
   -0.6493   -4.2433   32.7522 C   0  0  0  0  0  0  0  0  0  0  0  0
   -0.9700   -3.3949   33.7485 N   0  0  0  0  0  0  0  0  0  0  0  0
    0.5783   -4.2524   32.1287 N   0  0  0  0  0  0  0  0  0  0  0  0
    1.7661   -3.5546   32.4310 C   0  0  0  0  0  0  0  0  0  0  0  0
    1.7842   -2.1474   31.9249 C   0  0  0  0  0  0  0  0  0  0  0  0
    1.8478   -1.9449   30.7425 O   0  0  0  0  0  0  0  0  0  0  0  0
    1.6226   -1.2487   33.0059 N   0  0  0  0  0  0  0  0  0  0  0  0
    2.9675   -0.8006   33.5144 C   0  0  0  0  0  0  0  0  0  0  0  0
    1.3657    0.2342   33.0205 C   0  0  0  0  0  0  0  0  0  0  0  0
   -0.1427    0.2687   32.7355 C   0  0  0  0  0  0  0  0  0  0  0  0
   -1.0364    0.2435   33.8156 C   0  0  0  0  0  0  0  0  0  0  0  0
   -2.3573   -0.1355   33.6145 C   0  0  0  0  0  0  0  0  0  0  0  0
   -2.7839   -0.4990   32.3409 C   0  0  0  0  0  0  0  0  0  0  0  0
   -1.9272   -0.3954   31.2456 C   0  0  0  0  0  0  0  0  0  0  0  0
   -0.6125    0.0086   31.4373 C   0  0  0  0  0  0  0  0  0  0  0  0
    2.7795   -5.6347   34.1706 C   0  0  0  0  0  0  0  0  0  0  0  0
    3.3231   -6.1831   35.3303 C   0  0  0  0  0  0  0  0  0  0  0  0
    2.6100   -6.9559   36.2115 O   0  0  0  0  0  0  0  0  0  0  0  0
    1.1900   -6.9940   36.0730 C   0  0  0  0  0  0  0  0  0  0  0  0
    7.2012   -6.6839   36.3795 H   0  0  0  0  0  0  0  0  0  0  0  0
    6.7012   -6.8072   38.0700 H   0  0  0  0  0  0  0  0  0  0  0  0
    6.6671   -5.2195   37.2940 H   0  0  0  0  0  0  0  0  0  0  0  0
    6.5012   -4.9820   34.9394 H   0  0  0  0  0  0  0  0  0  0  0  0
    5.5009   -3.9848   32.9523 H   0  0  0  0  0  0  0  0  0  0  0  0
    3.7338   -5.0988   30.2669 H   0  0  0  0  0  0  0  0  0  0  0  0
    1.5891   -6.1803   29.5847 H   0  0  0  0  0  0  0  0  0  0  0  0
   -1.9417   -3.4750   34.0673 H   0  0  0  0  0  0  0  0  0  0  0  0
   -0.6820   -2.4224   33.6560 H   0  0  0  0  0  0  0  0  0  0  0  0
    3.5644   -1.7144   33.6411 H   0  0  0  0  0  0  0  0  0  0  0  0
    3.5585   -0.2134   32.7937 H   0  0  0  0  0  0  0  0  0  0  0  0
    2.9470   -0.3811   34.5314 H   0  0  0  0  0  0  0  0  0  0  0  0
    1.8505    0.7632   32.1855 H   0  0  0  0  0  0  0  0  0  0  0  0
    1.4914    0.7608   33.9795 H   0  0  0  0  0  0  0  0  0  0  0  0
   -0.6844    0.4182   34.8302 H   0  0  0  0  0  0  0  0  0  0  0  0
   -3.0346   -0.2189   34.4610 H   0  0  0  0  0  0  0  0  0  0  0  0
   -3.7929   -0.8758   32.2175 H   0  0  0  0  0  0  0  0  0  0  0  0
   -2.2581   -0.6717   30.2481 H   0  0  0  0  0  0  0  0  0  0  0  0
    0.0700    0.0035   30.5882 H   0  0  0  0  0  0  0  0  0  0  0  0
    1.7437   -5.8457   33.9291 H   0  0  0  0  0  0  0  0  0  0  0  0
    0.7870   -7.5423   36.9301 H   0  0  0  0  0  0  0  0  0  0  0  0
    0.9026   -7.5362   35.1666 H   0  0  0  0  0  0  0  0  0  0  0  0
    0.7608   -5.9866   36.0884 H   0  0  0  0  0  0  0  0  0  0  0  0
  1  2  1  0
  2  3  1  0
  3  4  2  0
  4  5  1  0
  5  6  2  0
  6  7  1  0
  7  8  1  0
  8  9  2  0
  9 10  1  0
 10 11  2  0
 11 12  1  0
 12 13  2  0
 13 14  1  0
 13 15  1  0
 15 16  1  0
 16 17  1  0
 17 18  2  0
 17 19  1  0
 19 20  1  0
 19 21  1  0
 21 22  1  0
 22 23  2  0
 23 24  1  0
 24 25  2  0
 25 26  1  0
 26 27  2  0
  6 28  1  0
 28 29  2  0
 29 30  1  0
 30 31  1  0
 29  3  1  0
 16  7  2  0
 27 22  1  0
 15 10  1  0
  1 32  1  0
  1 33  1  0
  1 34  1  0
  4 35  1  0
  5 36  1  0
  8 37  1  0
  9 38  1  0
 14 39  1  0
 14 40  1  0
 20 41  1  0
 20 42  1  0
 20 43  1  0
 21 44  1  0
 21 45  1  0
 23 46  1  0
 24 47  1  0
 25 48  1  0
 26 49  1  0
 27 50  1  0
 28 51  1  0
 31 52  1  0
 31 53  1  0
 31 54  1  0
M  END
>  <Energy>  (942) 
188.08105224090573

>  <compound_id>  (942) 
3814

>  <target_id>  (942) 
1

>  <reference_id>  (942) 
165

>  <inspiration_ids>  (942) 
[131, 165]

>  <energy_score>  (942) 
75.8073685691379

>  <distance_score>  (942) 
3.4532310568491984

>  <path>  (942) 
/opt/xchem-fragalysis-2/maxwin/BulkDock/SCRATCH/505734/C3814-P165/C3814-P165.minimised.mol

>  <scratch_subdir>  (942) 
/opt/xchem-fragalysis-2/maxwin/BulkDock/SCRATCH/505734/C3814-P165

>  <fragmenstein_runtime>  (942) 
16.318666696548462

>  <fragmenstein_outcome>  (942) 
too moved

>  <fragmenstein_mode>  (942) 
expansion

>  <fragmenstein_error>  (942) 


$$$$
C3815-P131
     RDKit          3D

 41 43  0  0  0  0  0  0  0  0999 V2000
   -0.3965   -7.6187   33.7138 C   0  0  0  0  0  0  0  0  0  0  0  0
    0.4273   -7.1458   34.7870 N   0  0  0  0  0  0  0  0  0  0  0  0
    1.8024   -7.4346   35.1258 C   0  0  0  0  0  0  0  0  0  0  0  0
    2.5819   -8.2039   34.6430 O   0  0  0  0  0  0  0  0  0  0  0  0
    2.2662   -6.4983   36.2085 C   0  0  0  0  0  0  0  0  0  0  0  0
    2.3923   -5.2290   35.6321 C   0  0  0  0  0  0  0  0  0  0  0  0
    1.4195   -4.2947   35.9800 C   0  0  0  0  0  0  0  0  0  0  0  0
    0.7129   -3.5376   34.8881 C   0  0  0  0  0  0  0  0  0  0  0  0
   -0.2280   -2.4289   35.1099 C   0  0  0  0  0  0  0  0  0  0  0  0
   -1.1663   -2.0814   34.2035 C   0  0  0  0  0  0  0  0  0  0  0  0
   -1.2436   -2.7798   32.9712 C   0  0  0  0  0  0  0  0  0  0  0  0
   -2.1088   -2.7778   31.9817 N   0  0  0  0  0  0  0  0  0  0  0  0
   -1.6589   -3.6650   31.0350 N   0  0  0  0  0  0  0  0  0  0  0  0
   -0.5287   -4.1846   31.4497 C   0  0  0  0  0  0  0  0  0  0  0  0
    0.2597   -5.0605   30.7809 N   0  0  0  0  0  0  0  0  0  0  0  0
   -0.2528   -3.7029   32.7132 N   0  0  0  0  0  0  0  0  0  0  0  0
    0.7034   -4.0825   33.6443 C   0  0  0  0  0  0  0  0  0  0  0  0
    0.8182   -4.4356   37.2450 C   0  0  0  0  0  0  0  0  0  0  0  0
    1.0134   -5.5895   38.0358 C   0  0  0  0  0  0  0  0  0  0  0  0
    0.3464   -5.5349   39.2283 O   0  0  0  0  0  0  0  0  0  0  0  0
    0.4106   -6.6485   40.1070 C   0  0  0  0  0  0  0  0  0  0  0  0
    1.7186   -6.6630   37.4869 C   0  0  0  0  0  0  0  0  0  0  0  0
    1.7137   -7.8898   38.0887 O   0  0  0  0  0  0  0  0  0  0  0  0
    3.0338   -8.3842   38.3042 C   0  0  0  0  0  0  0  0  0  0  0  0
   -1.1355   -8.3041   34.1149 H   0  0  0  0  0  0  0  0  0  0  0  0
    0.2047   -8.0620   32.9257 H   0  0  0  0  0  0  0  0  0  0  0  0
   -0.9327   -6.7598   33.3028 H   0  0  0  0  0  0  0  0  0  0  0  0
    0.0483   -6.4934   35.4654 H   0  0  0  0  0  0  0  0  0  0  0  0
    2.8886   -5.1682   34.6640 H   0  0  0  0  0  0  0  0  0  0  0  0
   -0.1719   -1.8941   36.0539 H   0  0  0  0  0  0  0  0  0  0  0  0
   -1.8788   -1.2874   34.3959 H   0  0  0  0  0  0  0  0  0  0  0  0
    1.2622   -4.9409   30.8815 H   0  0  0  0  0  0  0  0  0  0  0  0
    0.0099   -5.1229   29.7920 H   0  0  0  0  0  0  0  0  0  0  0  0
    1.2912   -4.9311   33.3269 H   0  0  0  0  0  0  0  0  0  0  0  0
    0.0877   -3.7071   37.5941 H   0  0  0  0  0  0  0  0  0  0  0  0
   -0.0984   -7.5186   39.6820 H   0  0  0  0  0  0  0  0  0  0  0  0
   -0.1259   -6.3769   41.0217 H   0  0  0  0  0  0  0  0  0  0  0  0
    1.4428   -6.8736   40.3921 H   0  0  0  0  0  0  0  0  0  0  0  0
    3.6482   -7.6494   38.8369 H   0  0  0  0  0  0  0  0  0  0  0  0
    3.5143   -8.6675   37.3629 H   0  0  0  0  0  0  0  0  0  0  0  0
    2.9600   -9.2779   38.9306 H   0  0  0  0  0  0  0  0  0  0  0  0
  1  2  1  0
  2  3  1  0
  3  4  2  0
  3  5  1  0
  5  6  2  0
  6  7  1  0
  7  8  1  0
  8  9  1  0
  9 10  2  0
 10 11  1  0
 11 12  2  0
 12 13  1  0
 13 14  2  0
 14 15  1  0
 14 16  1  0
 16 17  1  0
  7 18  2  0
 18 19  1  0
 19 20  1  0
 20 21  1  0
 19 22  2  0
 22 23  1  0
 23 24  1  0
 22  5  1  0
 17  8  2  0
 16 11  1  0
  1 25  1  0
  1 26  1  0
  1 27  1  0
  2 28  1  0
  6 29  1  0
  9 30  1  0
 10 31  1  0
 15 32  1  0
 15 33  1  0
 17 34  1  0
 18 35  1  0
 21 36  1  0
 21 37  1  0
 21 38  1  0
 24 39  1  0
 24 40  1  0
 24 41  1  0
M  END
>  <Energy>  (943) 
113.64324166867623

>  <compound_id>  (943) 
3815

>  <target_id>  (943) 
1

>  <reference_id>  (943) 
131

>  <inspiration_ids>  (943) 
[131, 166]

>  <energy_score>  (943) 
6.408858647347429

>  <distance_score>  (943) 
3.266234101426253

>  <path>  (943) 
/opt/xchem-fragalysis-2/maxwin/BulkDock/SCRATCH/505734/C3815-P131/C3815-P131.minimised.mol

>  <scratch_subdir>  (943) 
/opt/xchem-fragalysis-2/maxwin/BulkDock/SCRATCH/505734/C3815-P131

>  <fragmenstein_runtime>  (943) 
3.2879645824432373

>  <fragmenstein_outcome>  (943) 
too moved

>  <fragmenstein_mode>  (943) 
expansion

>  <fragmenstein_error>  (943) 


$$$$
C3815-P166
     RDKit          3D

 41 43  0  0  0  0  0  0  0  0999 V2000
    5.8440  -10.5304   35.0946 C   0  0  0  0  0  0  0  0  0  0  0  0
    4.8473   -9.6048   35.5494 N   0  0  0  0  0  0  0  0  0  0  0  0
    4.8251   -8.6867   36.7831 C   0  0  0  0  0  0  0  0  0  0  0  0
    5.6438   -8.4792   37.5837 O   0  0  0  0  0  0  0  0  0  0  0  0
    3.5375   -7.9389   36.8429 C   0  0  0  0  0  0  0  0  0  0  0  0
    3.1865   -7.1415   35.7482 C   0  0  0  0  0  0  0  0  0  0  0  0
    2.0058   -6.3819   35.7474 C   0  0  0  0  0  0  0  0  0  0  0  0
    1.5709   -5.7834   34.4570 C   0  0  0  0  0  0  0  0  0  0  0  0
    2.4814   -5.3224   33.3848 C   0  0  0  0  0  0  0  0  0  0  0  0
    2.1525   -5.3951   32.0782 C   0  0  0  0  0  0  0  0  0  0  0  0
    0.8854   -5.9074   31.7520 C   0  0  0  0  0  0  0  0  0  0  0  0
    0.2927   -6.4073   30.6900 N   0  0  0  0  0  0  0  0  0  0  0  0
   -1.0574   -6.3381   30.9583 N   0  0  0  0  0  0  0  0  0  0  0  0
   -1.1788   -5.6568   32.0804 C   0  0  0  0  0  0  0  0  0  0  0  0
   -1.8930   -4.5222   32.3146 N   0  0  0  0  0  0  0  0  0  0  0  0
   -0.0338   -5.8618   32.7743 N   0  0  0  0  0  0  0  0  0  0  0  0
    0.2714   -5.8762   34.1178 C   0  0  0  0  0  0  0  0  0  0  0  0
    1.2232   -6.3812   36.9150 C   0  0  0  0  0  0  0  0  0  0  0  0
    1.5651   -7.1870   38.0140 C   0  0  0  0  0  0  0  0  0  0  0  0
    0.7415   -7.0753   39.1059 O   0  0  0  0  0  0  0  0  0  0  0  0
    0.2804   -8.3231   39.6137 C   0  0  0  0  0  0  0  0  0  0  0  0
    2.7194   -7.9807   37.9719 C   0  0  0  0  0  0  0  0  0  0  0  0
    3.0272   -8.8645   38.9687 O   0  0  0  0  0  0  0  0  0  0  0  0
    3.5786   -8.1871   40.0935 C   0  0  0  0  0  0  0  0  0  0  0  0
    5.9660  -10.4070   34.0169 H   0  0  0  0  0  0  0  0  0  0  0  0
    5.4997  -11.5434   35.3142 H   0  0  0  0  0  0  0  0  0  0  0  0
    6.7855  -10.3378   35.6131 H   0  0  0  0  0  0  0  0  0  0  0  0
    3.9356   -9.6091   35.1163 H   0  0  0  0  0  0  0  0  0  0  0  0
    3.8584   -7.1146   34.8982 H   0  0  0  0  0  0  0  0  0  0  0  0
    3.4469   -4.9229   33.6867 H   0  0  0  0  0  0  0  0  0  0  0  0
    2.8218   -5.0726   31.2896 H   0  0  0  0  0  0  0  0  0  0  0  0
   -1.8420   -3.8562   31.5398 H   0  0  0  0  0  0  0  0  0  0  0  0
   -1.7338   -4.0210   33.1917 H   0  0  0  0  0  0  0  0  0  0  0  0
   -0.5468   -6.1347   34.7787 H   0  0  0  0  0  0  0  0  0  0  0  0
    0.3152   -5.7855   36.9776 H   0  0  0  0  0  0  0  0  0  0  0  0
    0.0807   -9.0228   38.8054 H   0  0  0  0  0  0  0  0  0  0  0  0
   -0.6528   -8.1377   40.1508 H   0  0  0  0  0  0  0  0  0  0  0  0
    0.9741   -8.7489   40.3409 H   0  0  0  0  0  0  0  0  0  0  0  0
    3.7723   -8.9333   40.8700 H   0  0  0  0  0  0  0  0  0  0  0  0
    2.9020   -7.4361   40.5127 H   0  0  0  0  0  0  0  0  0  0  0  0
    4.5328   -7.7138   39.8391 H   0  0  0  0  0  0  0  0  0  0  0  0
  1  2  1  0
  2  3  1  0
  3  4  2  0
  3  5  1  0
  5  6  2  0
  6  7  1  0
  7  8  1  0
  8  9  1  0
  9 10  2  0
 10 11  1  0
 11 12  2  0
 12 13  1  0
 13 14  2  0
 14 15  1  0
 14 16  1  0
 16 17  1  0
  7 18  2  0
 18 19  1  0
 19 20  1  0
 20 21  1  0
 19 22  2  0
 22 23  1  0
 23 24  1  0
 22  5  1  0
 17  8  2  0
 16 11  1  0
  1 25  1  0
  1 26  1  0
  1 27  1  0
  2 28  1  0
  6 29  1  0
  9 30  1  0
 10 31  1  0
 15 32  1  0
 15 33  1  0
 17 34  1  0
 18 35  1  0
 21 36  1  0
 21 37  1  0
 21 38  1  0
 24 39  1  0
 24 40  1  0
 24 41  1  0
M  END
>  <Energy>  (944) 
118.49812365194295

>  <compound_id>  (944) 
3815

>  <target_id>  (944) 
1

>  <reference_id>  (944) 
166

>  <inspiration_ids>  (944) 
[131, 166]

>  <energy_score>  (944) 
10.453012894273627

>  <distance_score>  (944) 
3.694797588151597

>  <path>  (944) 
/opt/xchem-fragalysis-2/maxwin/BulkDock/SCRATCH/505734/C3815-P166/C3815-P166.minimised.mol

>  <scratch_subdir>  (944) 
/opt/xchem-fragalysis-2/maxwin/BulkDock/SCRATCH/505734/C3815-P166

>  <fragmenstein_runtime>  (944) 
4.217014789581299

>  <fragmenstein_outcome>  (944) 
too moved

>  <fragmenstein_mode>  (944) 
expansion

>  <fragmenstein_error>  (944) 


$$$$
C3817-P131
     RDKit          3D

 68 71  0  0  0  0  0  0  0  0999 V2000
   -1.3404   -1.2352   28.9884 C   0  0  0  0  0  0  0  0  0  0  0  0
   -0.5378   -0.2594   29.8436 C   0  0  0  0  0  0  0  0  0  0  0  0
    0.1402   -0.9327   31.0613 C   0  0  0  0  0  0  0  0  0  0  0  0
   -0.8799   -1.2383   32.1882 C   0  0  0  0  0  0  0  0  0  0  0  0
   -0.5565   -2.4521   32.9477 N   0  0  0  0  0  0  0  0  0  0  0  0
   -0.2309   -2.3755   34.2834 C   0  0  0  0  0  0  0  0  0  0  0  0
   -0.1399   -3.4725   35.0572 C   0  0  0  0  0  0  0  0  0  0  0  0
    0.2589   -3.3369   36.5133 C   0  0  0  0  0  0  0  0  0  0  0  0
   -0.8707   -3.3929   37.5715 C   0  0  0  0  0  0  0  0  0  0  0  0
   -0.2421   -3.6182   38.8501 O   0  0  0  0  0  0  0  0  0  0  0  0
   -0.2471   -4.9852   39.2413 C   0  0  0  0  0  0  0  0  0  0  0  0
   -1.6720   -2.0639   37.6703 C   0  0  0  0  0  0  0  0  0  0  0  0
   -2.6689   -2.1129   38.8335 C   0  0  0  0  0  0  0  0  0  0  0  0
   -2.3757   -1.8378   36.4440 O   0  0  0  0  0  0  0  0  0  0  0  0
   -2.8036   -0.4960   36.2624 C   0  0  0  0  0  0  0  0  0  0  0  0
   -0.3283   -4.8031   34.4534 C   0  0  0  0  0  0  0  0  0  0  0  0
   -0.3628   -6.0727   35.2052 C   0  0  0  0  0  0  0  0  0  0  0  0
   -0.5766   -7.2657   34.6185 C   0  0  0  0  0  0  0  0  0  0  0  0
   -0.6775   -7.3392   33.2082 C   0  0  0  0  0  0  0  0  0  0  0  0
   -0.8898   -8.3305   32.3721 N   0  0  0  0  0  0  0  0  0  0  0  0
   -0.7176   -7.8560   31.0959 N   0  0  0  0  0  0  0  0  0  0  0  0
   -0.4144   -6.5816   31.1798 C   0  0  0  0  0  0  0  0  0  0  0  0
    0.0129   -5.7842   30.1726 N   0  0  0  0  0  0  0  0  0  0  0  0
   -0.5392   -6.1609   32.4991 N   0  0  0  0  0  0  0  0  0  0  0  0
   -0.4856   -4.9009   33.1063 C   0  0  0  0  0  0  0  0  0  0  0  0
   -0.7594   -3.6655   32.3218 C   0  0  0  0  0  0  0  0  0  0  0  0
   -1.2042   -3.7433   31.1756 O   0  0  0  0  0  0  0  0  0  0  0  0
    1.2934   -0.1132   31.6348 C   0  0  0  0  0  0  0  0  0  0  0  0
    1.2529    1.2862   31.7138 C   0  0  0  0  0  0  0  0  0  0  0  0
    2.3178    2.0022   32.2682 C   0  0  0  0  0  0  0  0  0  0  0  0
    3.4468    1.3349   32.7553 C   0  0  0  0  0  0  0  0  0  0  0  0
    4.5856    2.0989   33.3744 C   0  0  0  0  0  0  0  0  0  0  0  0
    4.4924    2.0702   34.7926 O   0  0  0  0  0  0  0  0  0  0  0  0
    3.4840   -0.0629   32.6973 C   0  0  0  0  0  0  0  0  0  0  0  0
    2.4209   -0.7777   32.1413 C   0  0  0  0  0  0  0  0  0  0  0  0
   -2.1679   -1.6765   29.5479 H   0  0  0  0  0  0  0  0  0  0  0  0
   -1.7617   -0.7164   28.1213 H   0  0  0  0  0  0  0  0  0  0  0  0
   -0.7044   -2.0461   28.6195 H   0  0  0  0  0  0  0  0  0  0  0  0
   -1.1976    0.5524   30.1710 H   0  0  0  0  0  0  0  0  0  0  0  0
    0.2267    0.1916   29.1980 H   0  0  0  0  0  0  0  0  0  0  0  0
    0.5766   -1.8685   30.6865 H   0  0  0  0  0  0  0  0  0  0  0  0
   -1.8789   -1.3986   31.7647 H   0  0  0  0  0  0  0  0  0  0  0  0
   -0.9823   -0.3875   32.8744 H   0  0  0  0  0  0  0  0  0  0  0  0
   -0.0842   -1.3795   34.6924 H   0  0  0  0  0  0  0  0  0  0  0  0
    1.0142   -4.1018   36.7400 H   0  0  0  0  0  0  0  0  0  0  0  0
    0.8128   -2.3976   36.6579 H   0  0  0  0  0  0  0  0  0  0  0  0
   -1.5667   -4.2078   37.3350 H   0  0  0  0  0  0  0  0  0  0  0  0
    0.3151   -5.5946   38.5295 H   0  0  0  0  0  0  0  0  0  0  0  0
    0.2354   -5.0624   40.2193 H   0  0  0  0  0  0  0  0  0  0  0  0
   -1.2721   -5.3539   39.3313 H   0  0  0  0  0  0  0  0  0  0  0  0
   -0.9653   -1.2436   37.8531 H   0  0  0  0  0  0  0  0  0  0  0  0
   -3.4397   -2.8678   38.6517 H   0  0  0  0  0  0  0  0  0  0  0  0
   -3.1880   -1.1567   38.9497 H   0  0  0  0  0  0  0  0  0  0  0  0
   -2.1781   -2.3326   39.7861 H   0  0  0  0  0  0  0  0  0  0  0  0
   -3.5870   -0.2318   36.9767 H   0  0  0  0  0  0  0  0  0  0  0  0
   -1.9602    0.1956   36.3484 H   0  0  0  0  0  0  0  0  0  0  0  0
   -3.2197   -0.4069   35.2549 H   0  0  0  0  0  0  0  0  0  0  0  0
   -0.2759   -6.0393   36.2849 H   0  0  0  0  0  0  0  0  0  0  0  0
   -0.6492   -8.1817   35.1991 H   0  0  0  0  0  0  0  0  0  0  0  0
   -0.2091   -6.1293   29.2409 H   0  0  0  0  0  0  0  0  0  0  0  0
   -0.2941   -4.8053   30.2159 H   0  0  0  0  0  0  0  0  0  0  0  0
    0.3974    1.8432   31.3401 H   0  0  0  0  0  0  0  0  0  0  0  0
    2.2597    3.0885   32.3108 H   0  0  0  0  0  0  0  0  0  0  0  0
    4.5802    3.1445   33.0491 H   0  0  0  0  0  0  0  0  0  0  0  0
    5.5474    1.6685   33.0761 H   0  0  0  0  0  0  0  0  0  0  0  0
    3.6070    1.7415   35.0230 H   0  0  0  0  0  0  0  0  0  0  0  0
    4.3454   -0.6030   33.0856 H   0  0  0  0  0  0  0  0  0  0  0  0
    2.4781   -1.8641   32.1080 H   0  0  0  0  0  0  0  0  0  0  0  0
  1  2  1  0
  2  3  1  0
  3  4  1  0
  4  5  1  0
  5  6  1  0
  6  7  2  0
  7  8  1  0
  8  9  1  0
  9 10  1  0
 10 11  1  0
  9 12  1  0
 12 13  1  0
 12 14  1  0
 14 15  1  0
  7 16  1  0
 16 17  1  0
 17 18  2  0
 18 19  1  0
 19 20  2  0
 20 21  1  0
 21 22  2  0
 22 23  1  0
 22 24  1  0
 24 25  1  0
 25 26  1  0
 26 27  2  0
  3 28  1  0
 28 29  2  0
 29 30  1  0
 30 31  2  0
 31 32  1  0
 32 33  1  0
 31 34  1  0
 34 35  2  0
 26  5  1  0
 35 28  1  0
 25 16  2  0
 24 19  1  0
  1 36  1  0
  1 37  1  0
  1 38  1  0
  2 39  1  0
  2 40  1  0
  3 41  1  0
  4 42  1  0
  4 43  1  0
  6 44  1  0
  8 45  1  0
  8 46  1  0
  9 47  1  0
 11 48  1  0
 11 49  1  0
 11 50  1  0
 12 51  1  0
 13 52  1  0
 13 53  1  0
 13 54  1  0
 15 55  1  0
 15 56  1  0
 15 57  1  0
 17 58  1  0
 18 59  1  0
 23 60  1  0
 23 61  1  0
 29 62  1  0
 30 63  1  0
 32 64  1  0
 32 65  1  0
 33 66  1  0
 34 67  1  0
 35 68  1  0
M  END
>  <Energy>  (945) 
93.287989770334235

>  <compound_id>  (945) 
3817

>  <target_id>  (945) 
1

>  <reference_id>  (945) 
131

>  <inspiration_ids>  (945) 
[131, 168]

>  <energy_score>  (945) 
-96.99457634865291

>  <distance_score>  (945) 
1.7003592190658285

>  <path>  (945) 
/opt/xchem-fragalysis-2/maxwin/BulkDock/SCRATCH/505734/C3817-P131/C3817-P131.minimised.mol

>  <scratch_subdir>  (945) 
/opt/xchem-fragalysis-2/maxwin/BulkDock/SCRATCH/505734/C3817-P131

>  <fragmenstein_runtime>  (945) 
7.455815553665161

>  <fragmenstein_outcome>  (945) 
too moved

>  <fragmenstein_mode>  (945) 
expansion

>  <fragmenstein_error>  (945) 


$$$$
C3817-P168
     RDKit          3D

 68 71  0  0  0  0  0  0  0  0999 V2000
   -0.5082   -1.0632   28.5083 C   0  0  0  0  0  0  0  0  0  0  0  0
    0.0488   -0.1451   29.5885 C   0  0  0  0  0  0  0  0  0  0  0  0
    0.5601   -0.9284   30.8188 C   0  0  0  0  0  0  0  0  0  0  0  0
   -0.6218   -1.3450   31.7235 C   0  0  0  0  0  0  0  0  0  0  0  0
   -0.3496   -2.5326   32.5392 N   0  0  0  0  0  0  0  0  0  0  0  0
   -0.0954   -2.3890   33.8822 C   0  0  0  0  0  0  0  0  0  0  0  0
   -0.0490   -3.4429   34.7113 C   0  0  0  0  0  0  0  0  0  0  0  0
    0.2866   -3.2316   36.1752 C   0  0  0  0  0  0  0  0  0  0  0  0
   -0.8949   -3.1677   37.1763 C   0  0  0  0  0  0  0  0  0  0  0  0
   -0.3469   -3.3580   38.4960 O   0  0  0  0  0  0  0  0  0  0  0  0
   -0.4397   -4.6986   38.9594 C   0  0  0  0  0  0  0  0  0  0  0  0
   -1.6208   -1.7914   37.1658 C   0  0  0  0  0  0  0  0  0  0  0  0
   -2.6485   -1.7087   38.3010 C   0  0  0  0  0  0  0  0  0  0  0  0
   -2.2775   -1.6076   35.9064 O   0  0  0  0  0  0  0  0  0  0  0  0
   -2.6162   -0.2566   35.6254 C   0  0  0  0  0  0  0  0  0  0  0  0
   -0.2701   -4.7929   34.1696 C   0  0  0  0  0  0  0  0  0  0  0  0
   -0.4173   -5.9922   35.0130 C   0  0  0  0  0  0  0  0  0  0  0  0
   -0.7392   -7.1971   34.5151 C   0  0  0  0  0  0  0  0  0  0  0  0
   -0.8567   -7.3594   33.1169 C   0  0  0  0  0  0  0  0  0  0  0  0
   -1.2333   -8.3741   32.3756 N   0  0  0  0  0  0  0  0  0  0  0  0
   -1.0166   -8.0423   31.0672 N   0  0  0  0  0  0  0  0  0  0  0  0
   -0.5096   -6.8315   31.0337 C   0  0  0  0  0  0  0  0  0  0  0  0
   -0.0030   -6.2223   29.9373 N   0  0  0  0  0  0  0  0  0  0  0  0
   -0.5549   -6.2731   32.3101 N   0  0  0  0  0  0  0  0  0  0  0  0
   -0.3688   -4.9761   32.8217 C   0  0  0  0  0  0  0  0  0  0  0  0
   -0.4489   -3.7734   31.9360 C   0  0  0  0  0  0  0  0  0  0  0  0
   -0.6702   -3.8914   30.7311 O   0  0  0  0  0  0  0  0  0  0  0  0
    1.5863   -0.1463   31.6327 C   0  0  0  0  0  0  0  0  0  0  0  0
    1.4454    1.2241   31.8937 C   0  0  0  0  0  0  0  0  0  0  0  0
    2.3916    1.9070   32.6630 C   0  0  0  0  0  0  0  0  0  0  0  0
    3.5006    1.2344   33.1873 C   0  0  0  0  0  0  0  0  0  0  0  0
    4.5125    1.9587   34.0334 C   0  0  0  0  0  0  0  0  0  0  0  0
    4.2816    1.7028   35.4125 O   0  0  0  0  0  0  0  0  0  0  0  0
    3.6373   -0.1371   32.9446 C   0  0  0  0  0  0  0  0  0  0  0  0
    2.6929   -0.8183   32.1735 C   0  0  0  0  0  0  0  0  0  0  0  0
   -1.2968   -1.7151   28.8855 H   0  0  0  0  0  0  0  0  0  0  0  0
   -0.9186   -0.4704   27.6855 H   0  0  0  0  0  0  0  0  0  0  0  0
    0.2864   -1.7007   28.1102 H   0  0  0  0  0  0  0  0  0  0  0  0
   -0.7246    0.5738   29.8838 H   0  0  0  0  0  0  0  0  0  0  0  0
    0.8673    0.4326   29.1407 H   0  0  0  0  0  0  0  0  0  0  0  0
    1.0658   -1.8255   30.4360 H   0  0  0  0  0  0  0  0  0  0  0  0
   -1.5006   -1.5839   31.1125 H   0  0  0  0  0  0  0  0  0  0  0  0
   -0.9361   -0.5178   32.3742 H   0  0  0  0  0  0  0  0  0  0  0  0
    0.0441   -1.3743   34.2467 H   0  0  0  0  0  0  0  0  0  0  0  0
    0.9946   -4.0113   36.4873 H   0  0  0  0  0  0  0  0  0  0  0  0
    0.8770   -2.3101   36.2873 H   0  0  0  0  0  0  0  0  0  0  0  0
   -1.6262   -3.9536   36.9469 H   0  0  0  0  0  0  0  0  0  0  0  0
    0.1429   -5.3693   38.3233 H   0  0  0  0  0  0  0  0  0  0  0  0
   -0.0294   -4.7396   39.9720 H   0  0  0  0  0  0  0  0  0  0  0  0
   -1.4842   -5.0202   38.9952 H   0  0  0  0  0  0  0  0  0  0  0  0
   -0.8737   -1.0011   37.3171 H   0  0  0  0  0  0  0  0  0  0  0  0
   -3.4383   -2.4542   38.1663 H   0  0  0  0  0  0  0  0  0  0  0  0
   -3.1392   -0.7311   38.3223 H   0  0  0  0  0  0  0  0  0  0  0  0
   -2.1875   -1.8607   39.2813 H   0  0  0  0  0  0  0  0  0  0  0  0
   -3.3994    0.1022   36.2973 H   0  0  0  0  0  0  0  0  0  0  0  0
   -1.7335    0.3867   35.6907 H   0  0  0  0  0  0  0  0  0  0  0  0
   -3.0001   -0.2098   34.6022 H   0  0  0  0  0  0  0  0  0  0  0  0
   -0.3209   -5.8882   36.0872 H   0  0  0  0  0  0  0  0  0  0  0  0
   -0.8909   -8.0568   35.1585 H   0  0  0  0  0  0  0  0  0  0  0  0
   -0.2908   -6.6534   29.0624 H   0  0  0  0  0  0  0  0  0  0  0  0
   -0.1370   -5.2042   29.8838 H   0  0  0  0  0  0  0  0  0  0  0  0
    0.6038    1.7841   31.4943 H   0  0  0  0  0  0  0  0  0  0  0  0
    2.2593    2.9727   32.8421 H   0  0  0  0  0  0  0  0  0  0  0  0
    4.4602    3.0401   33.8699 H   0  0  0  0  0  0  0  0  0  0  0  0
    5.5285    1.6378   33.7806 H   0  0  0  0  0  0  0  0  0  0  0  0
    3.3932    1.3178   35.4966 H   0  0  0  0  0  0  0  0  0  0  0  0
    4.4856   -0.6818   33.3551 H   0  0  0  0  0  0  0  0  0  0  0  0
    2.8269   -1.8840   31.9994 H   0  0  0  0  0  0  0  0  0  0  0  0
  1  2  1  0
  2  3  1  0
  3  4  1  0
  4  5  1  0
  5  6  1  0
  6  7  2  0
  7  8  1  0
  8  9  1  0
  9 10  1  0
 10 11  1  0
  9 12  1  0
 12 13  1  0
 12 14  1  0
 14 15  1  0
  7 16  1  0
 16 17  1  0
 17 18  2  0
 18 19  1  0
 19 20  2  0
 20 21  1  0
 21 22  2  0
 22 23  1  0
 22 24  1  0
 24 25  1  0
 25 26  1  0
 26 27  2  0
  3 28  1  0
 28 29  2  0
 29 30  1  0
 30 31  2  0
 31 32  1  0
 32 33  1  0
 31 34  1  0
 34 35  2  0
 26  5  1  0
 35 28  1  0
 25 16  2  0
 24 19  1  0
  1 36  1  0
  1 37  1  0
  1 38  1  0
  2 39  1  0
  2 40  1  0
  3 41  1  0
  4 42  1  0
  4 43  1  0
  6 44  1  0
  8 45  1  0
  8 46  1  0
  9 47  1  0
 11 48  1  0
 11 49  1  0
 11 50  1  0
 12 51  1  0
 13 52  1  0
 13 53  1  0
 13 54  1  0
 15 55  1  0
 15 56  1  0
 15 57  1  0
 17 58  1  0
 18 59  1  0
 23 60  1  0
 23 61  1  0
 29 62  1  0
 30 63  1  0
 32 64  1  0
 32 65  1  0
 33 66  1  0
 34 67  1  0
 35 68  1  0
M  END
>  <Energy>  (946) 
91.718408059696543

>  <compound_id>  (946) 
3817

>  <target_id>  (946) 
1

>  <reference_id>  (946) 
168

>  <inspiration_ids>  (946) 
[131, 168]

>  <energy_score>  (946) 
-98.56415805929194

>  <distance_score>  (946) 
1.656269743959374

>  <path>  (946) 
/opt/xchem-fragalysis-2/maxwin/BulkDock/SCRATCH/505734/C3817-P168/C3817-P168.minimised.mol

>  <scratch_subdir>  (946) 
/opt/xchem-fragalysis-2/maxwin/BulkDock/SCRATCH/505734/C3817-P168

>  <fragmenstein_runtime>  (946) 
8.601119756698608

>  <fragmenstein_outcome>  (946) 
too moved

>  <fragmenstein_mode>  (946) 
expansion

>  <fragmenstein_error>  (946) 


$$$$
C3817-P131
     RDKit          3D

 68 71  0  0  0  0  0  0  0  0999 V2000
    4.2562   -0.9686   26.9192 C   0  0  0  0  0  0  0  0  0  0  0  0
    3.1833   -1.4805   27.8727 C   0  0  0  0  0  0  0  0  0  0  0  0
    3.6775   -2.5315   28.8940 C   0  0  0  0  0  0  0  0  0  0  0  0
    2.5038   -2.8664   29.8550 C   0  0  0  0  0  0  0  0  0  0  0  0
    2.7766   -3.6647   31.0599 N   0  0  0  0  0  0  0  0  0  0  0  0
    3.9969   -3.6246   31.6949 C   0  0  0  0  0  0  0  0  0  0  0  0
    4.2306   -4.2818   32.8415 C   0  0  0  0  0  0  0  0  0  0  0  0
    5.5629   -4.0657   33.5458 C   0  0  0  0  0  0  0  0  0  0  0  0
    6.7005   -5.0054   33.0724 C   0  0  0  0  0  0  0  0  0  0  0  0
    6.5600   -6.2450   33.7969 O   0  0  0  0  0  0  0  0  0  0  0  0
    7.4184   -7.2870   33.3464 C   0  0  0  0  0  0  0  0  0  0  0  0
    8.1012   -4.3541   33.2871 C   0  0  0  0  0  0  0  0  0  0  0  0
    8.3912   -3.3212   32.1957 C   0  0  0  0  0  0  0  0  0  0  0  0
    8.2138   -3.6625   34.5395 O   0  0  0  0  0  0  0  0  0  0  0  0
    8.3748   -4.5254   35.6579 C   0  0  0  0  0  0  0  0  0  0  0  0
    3.1723   -5.1178   33.4203 C   0  0  0  0  0  0  0  0  0  0  0  0
    3.3953   -6.0217   34.5615 C   0  0  0  0  0  0  0  0  0  0  0  0
    2.4428   -6.8322   35.0473 C   0  0  0  0  0  0  0  0  0  0  0  0
    1.1471   -6.7839   34.4913 C   0  0  0  0  0  0  0  0  0  0  0  0
    0.0673   -7.4734   34.7623 N   0  0  0  0  0  0  0  0  0  0  0  0
   -0.9638   -6.9150   34.0647 N   0  0  0  0  0  0  0  0  0  0  0  0
   -0.4923   -5.9069   33.3673 C   0  0  0  0  0  0  0  0  0  0  0  0
   -1.2489   -4.9602   32.7714 N   0  0  0  0  0  0  0  0  0  0  0  0
    0.8936   -5.8530   33.4909 N   0  0  0  0  0  0  0  0  0  0  0  0
    1.9097   -5.0682   32.9037 C   0  0  0  0  0  0  0  0  0  0  0  0
    1.6626   -4.2084   31.6983 C   0  0  0  0  0  0  0  0  0  0  0  0
    0.5256   -3.9980   31.2818 O   0  0  0  0  0  0  0  0  0  0  0  0
    4.3178   -3.7340   28.2064 C   0  0  0  0  0  0  0  0  0  0  0  0
    5.7136   -3.8737   28.2480 C   0  0  0  0  0  0  0  0  0  0  0  0
    6.3608   -4.8741   27.5171 C   0  0  0  0  0  0  0  0  0  0  0  0
    5.6359   -5.7587   26.7116 C   0  0  0  0  0  0  0  0  0  0  0  0
    6.3183   -6.8110   25.8685 C   0  0  0  0  0  0  0  0  0  0  0  0
    7.7148   -6.5659   25.7224 O   0  0  0  0  0  0  0  0  0  0  0  0
    4.2380   -5.6580   26.7076 C   0  0  0  0  0  0  0  0  0  0  0  0
    3.5876   -4.6564   27.4440 C   0  0  0  0  0  0  0  0  0  0  0  0
    3.8509   -0.1609   26.3010 H   0  0  0  0  0  0  0  0  0  0  0  0
    4.6063   -1.7537   26.2424 H   0  0  0  0  0  0  0  0  0  0  0  0
    5.1158   -0.5737   27.4697 H   0  0  0  0  0  0  0  0  0  0  0  0
    2.7832   -0.6161   28.4182 H   0  0  0  0  0  0  0  0  0  0  0  0
    2.3502   -1.8902   27.2999 H   0  0  0  0  0  0  0  0  0  0  0  0
    4.4522   -2.0190   29.4775 H   0  0  0  0  0  0  0  0  0  0  0  0
    1.7102   -3.3688   29.2863 H   0  0  0  0  0  0  0  0  0  0  0  0
    2.0644   -1.9285   30.2223 H   0  0  0  0  0  0  0  0  0  0  0  0
    4.7729   -3.0079   31.2568 H   0  0  0  0  0  0  0  0  0  0  0  0
    5.4299   -4.1337   34.6321 H   0  0  0  0  0  0  0  0  0  0  0  0
    5.8510   -3.0215   33.3681 H   0  0  0  0  0  0  0  0  0  0  0  0
    6.5724   -5.2333   32.0060 H   0  0  0  0  0  0  0  0  0  0  0  0
    8.4204   -7.1631   33.7645 H   0  0  0  0  0  0  0  0  0  0  0  0
    7.4657   -7.3256   32.2545 H   0  0  0  0  0  0  0  0  0  0  0  0
    7.0188   -8.2364   33.7135 H   0  0  0  0  0  0  0  0  0  0  0  0
    8.8970   -5.1040   33.2318 H   0  0  0  0  0  0  0  0  0  0  0  0
    7.6992   -2.4744   32.2393 H   0  0  0  0  0  0  0  0  0  0  0  0
    9.3955   -2.9041   32.3310 H   0  0  0  0  0  0  0  0  0  0  0  0
    8.3368   -3.7699   31.1990 H   0  0  0  0  0  0  0  0  0  0  0  0
    7.4565   -5.0811   35.8599 H   0  0  0  0  0  0  0  0  0  0  0  0
    9.2123   -5.2124   35.5045 H   0  0  0  0  0  0  0  0  0  0  0  0
    8.5928   -3.9069   36.5331 H   0  0  0  0  0  0  0  0  0  0  0  0
    4.3810   -6.0580   35.0154 H   0  0  0  0  0  0  0  0  0  0  0  0
    2.6287   -7.4993   35.8826 H   0  0  0  0  0  0  0  0  0  0  0  0
   -1.9701   -4.6138   33.4174 H   0  0  0  0  0  0  0  0  0  0  0  0
   -0.7680   -4.1801   32.3158 H   0  0  0  0  0  0  0  0  0  0  0  0
    6.3236   -3.1732   28.8143 H   0  0  0  0  0  0  0  0  0  0  0  0
    7.4473   -4.9336   27.5554 H   0  0  0  0  0  0  0  0  0  0  0  0
    6.1978   -7.7900   26.3418 H   0  0  0  0  0  0  0  0  0  0  0  0
    5.8780   -6.8459   24.8669 H   0  0  0  0  0  0  0  0  0  0  0  0
    7.8015   -5.7004   25.2644 H   0  0  0  0  0  0  0  0  0  0  0  0
    3.6509   -6.3410   26.0959 H   0  0  0  0  0  0  0  0  0  0  0  0
    2.5057   -4.5805   27.3861 H   0  0  0  0  0  0  0  0  0  0  0  0
  1  2  1  0
  2  3  1  0
  3  4  1  0
  4  5  1  0
  5  6  1  0
  6  7  2  0
  7  8  1  0
  8  9  1  0
  9 10  1  0
 10 11  1  0
  9 12  1  0
 12 13  1  0
 12 14  1  0
 14 15  1  0
  7 16  1  0
 16 17  1  0
 17 18  2  0
 18 19  1  0
 19 20  2  0
 20 21  1  0
 21 22  2  0
 22 23  1  0
 22 24  1  0
 24 25  1  0
 25 26  1  0
 26 27  2  0
  3 28  1  0
 28 29  2  0
 29 30  1  0
 30 31  2  0
 31 32  1  0
 32 33  1  0
 31 34  1  0
 34 35  2  0
 26  5  1  0
 35 28  1  0
 25 16  2  0
 24 19  1  0
  1 36  1  0
  1 37  1  0
  1 38  1  0
  2 39  1  0
  2 40  1  0
  3 41  1  0
  4 42  1  0
  4 43  1  0
  6 44  1  0
  8 45  1  0
  8 46  1  0
  9 47  1  0
 11 48  1  0
 11 49  1  0
 11 50  1  0
 12 51  1  0
 13 52  1  0
 13 53  1  0
 13 54  1  0
 15 55  1  0
 15 56  1  0
 15 57  1  0
 17 58  1  0
 18 59  1  0
 23 60  1  0
 23 61  1  0
 29 62  1  0
 30 63  1  0
 32 64  1  0
 32 65  1  0
 33 66  1  0
 34 67  1  0
 35 68  1  0
M  END
>  <Energy>  (947) 
101.16793938626229

>  <compound_id>  (947) 
3817

>  <target_id>  (947) 
1

>  <reference_id>  (947) 
131

>  <inspiration_ids>  (947) 
[131, 175]

>  <energy_score>  (947) 
-111.16874316921752

>  <distance_score>  (947) 
3.838170934416803

>  <path>  (947) 
/opt/xchem-fragalysis-2/maxwin/BulkDock/SCRATCH/505734/C3817-P131/C3817-P131.minimised.mol

>  <scratch_subdir>  (947) 
/opt/xchem-fragalysis-2/maxwin/BulkDock/SCRATCH/505734/C3817-P131

>  <fragmenstein_runtime>  (947) 
153.93542003631592

>  <fragmenstein_outcome>  (947) 
too moved

>  <fragmenstein_mode>  (947) 
expansion

>  <fragmenstein_error>  (947) 


$$$$
C3817-P175
     RDKit          3D

 68 71  0  0  0  0  0  0  0  0999 V2000
    2.9687   -0.4346   28.3801 C   0  0  0  0  0  0  0  0  0  0  0  0
    2.8113   -1.7742   27.6679 C   0  0  0  0  0  0  0  0  0  0  0  0
    3.0486   -2.9897   28.6137 C   0  0  0  0  0  0  0  0  0  0  0  0
    1.7026   -3.2427   29.3856 C   0  0  0  0  0  0  0  0  0  0  0  0
    1.7343   -4.0515   30.6070 N   0  0  0  0  0  0  0  0  0  0  0  0
    2.6443   -3.8307   31.6241 C   0  0  0  0  0  0  0  0  0  0  0  0
    2.5481   -4.4431   32.8234 C   0  0  0  0  0  0  0  0  0  0  0  0
    3.5494   -4.2374   33.9579 C   0  0  0  0  0  0  0  0  0  0  0  0
    4.8613   -3.4689   33.6449 C   0  0  0  0  0  0  0  0  0  0  0  0
    5.5335   -4.2367   32.6243 O   0  0  0  0  0  0  0  0  0  0  0  0
    6.5341   -3.5376   31.9018 C   0  0  0  0  0  0  0  0  0  0  0  0
    5.7666   -3.3207   34.9090 C   0  0  0  0  0  0  0  0  0  0  0  0
    6.5305   -1.9925   34.8840 C   0  0  0  0  0  0  0  0  0  0  0  0
    4.9641   -3.3392   36.0996 O   0  0  0  0  0  0  0  0  0  0  0  0
    5.6676   -3.7954   37.2489 C   0  0  0  0  0  0  0  0  0  0  0  0
    1.4606   -5.4181   33.0489 C   0  0  0  0  0  0  0  0  0  0  0  0
    1.2033   -6.1621   34.3020 C   0  0  0  0  0  0  0  0  0  0  0  0
    0.2051   -7.0630   34.4226 C   0  0  0  0  0  0  0  0  0  0  0  0
   -0.5857   -7.3812   33.2897 C   0  0  0  0  0  0  0  0  0  0  0  0
   -1.6017   -8.1864   33.0894 N   0  0  0  0  0  0  0  0  0  0  0  0
   -1.8425   -8.2517   31.7456 N   0  0  0  0  0  0  0  0  0  0  0  0
   -1.0084   -7.4331   31.1632 C   0  0  0  0  0  0  0  0  0  0  0  0
   -0.8037   -7.3001   29.8363 N   0  0  0  0  0  0  0  0  0  0  0  0
   -0.2897   -6.7367   32.1169 N   0  0  0  0  0  0  0  0  0  0  0  0
    0.6224   -5.6939   32.0222 C   0  0  0  0  0  0  0  0  0  0  0  0
    0.6163   -4.8167   30.8363 C   0  0  0  0  0  0  0  0  0  0  0  0
   -0.3652   -4.7903   30.0962 O   0  0  0  0  0  0  0  0  0  0  0  0
    3.7582   -4.1157   27.8429 C   0  0  0  0  0  0  0  0  0  0  0  0
    5.0322   -3.8639   27.2951 C   0  0  0  0  0  0  0  0  0  0  0  0
    5.7316   -4.8382   26.5681 C   0  0  0  0  0  0  0  0  0  0  0  0
    5.1871   -6.1109   26.3780 C   0  0  0  0  0  0  0  0  0  0  0  0
    5.9729   -7.1455   25.6235 C   0  0  0  0  0  0  0  0  0  0  0  0
    5.2304   -8.3431   25.4374 O   0  0  0  0  0  0  0  0  0  0  0  0
    3.9287   -6.3757   26.9133 C   0  0  0  0  0  0  0  0  0  0  0  0
    3.2435   -5.3962   27.6480 C   0  0  0  0  0  0  0  0  0  0  0  0
    3.9828   -0.3215   28.7763 H   0  0  0  0  0  0  0  0  0  0  0  0
    2.2622   -0.3275   29.2077 H   0  0  0  0  0  0  0  0  0  0  0  0
    2.7878    0.3857   27.6779 H   0  0  0  0  0  0  0  0  0  0  0  0
    1.8026   -1.8297   27.2469 H   0  0  0  0  0  0  0  0  0  0  0  0
    3.4972   -1.7719   26.8136 H   0  0  0  0  0  0  0  0  0  0  0  0
    3.7911   -2.6746   29.3582 H   0  0  0  0  0  0  0  0  0  0  0  0
    0.9968   -3.6734   28.6648 H   0  0  0  0  0  0  0  0  0  0  0  0
    1.2650   -2.2855   29.6960 H   0  0  0  0  0  0  0  0  0  0  0  0
    3.4311   -3.1184   31.4108 H   0  0  0  0  0  0  0  0  0  0  0  0
    3.8486   -5.2291   34.3243 H   0  0  0  0  0  0  0  0  0  0  0  0
    3.0105   -3.7236   34.7635 H   0  0  0  0  0  0  0  0  0  0  0  0
    4.5984   -2.4779   33.2535 H   0  0  0  0  0  0  0  0  0  0  0  0
    7.4472   -3.4612   32.4962 H   0  0  0  0  0  0  0  0  0  0  0  0
    6.1854   -2.5476   31.5938 H   0  0  0  0  0  0  0  0  0  0  0  0
    6.7686   -4.1156   31.0033 H   0  0  0  0  0  0  0  0  0  0  0  0
    6.4824   -4.1526   34.9290 H   0  0  0  0  0  0  0  0  0  0  0  0
    5.8366   -1.1484   34.9685 H   0  0  0  0  0  0  0  0  0  0  0  0
    7.2146   -1.9176   35.7351 H   0  0  0  0  0  0  0  0  0  0  0  0
    7.1211   -1.8621   33.9758 H   0  0  0  0  0  0  0  0  0  0  0  0
    4.9744   -3.7944   38.0945 H   0  0  0  0  0  0  0  0  0  0  0  0
    6.0250   -4.8182   37.0964 H   0  0  0  0  0  0  0  0  0  0  0  0
    6.5043   -3.1345   37.4890 H   0  0  0  0  0  0  0  0  0  0  0  0
    1.8074   -5.9313   35.1748 H   0  0  0  0  0  0  0  0  0  0  0  0
    0.0002   -7.5822   35.3547 H   0  0  0  0  0  0  0  0  0  0  0  0
   -1.5708   -7.5790   29.2382 H   0  0  0  0  0  0  0  0  0  0  0  0
   -0.5613   -6.3496   29.5251 H   0  0  0  0  0  0  0  0  0  0  0  0
    5.5008   -2.8892   27.4227 H   0  0  0  0  0  0  0  0  0  0  0  0
    6.7091   -4.5926   26.1541 H   0  0  0  0  0  0  0  0  0  0  0  0
    6.2412   -6.7483   24.6377 H   0  0  0  0  0  0  0  0  0  0  0  0
    6.8874   -7.3965   26.1699 H   0  0  0  0  0  0  0  0  0  0  0  0
    5.4476   -8.6728   24.5351 H   0  0  0  0  0  0  0  0  0  0  0  0
    3.4706   -7.3507   26.7641 H   0  0  0  0  0  0  0  0  0  0  0  0
    2.2908   -5.6540   28.0927 H   0  0  0  0  0  0  0  0  0  0  0  0
  1  2  1  0
  2  3  1  0
  3  4  1  0
  4  5  1  0
  5  6  1  0
  6  7  2  0
  7  8  1  0
  8  9  1  0
  9 10  1  0
 10 11  1  0
  9 12  1  0
 12 13  1  0
 12 14  1  0
 14 15  1  0
  7 16  1  0
 16 17  1  0
 17 18  2  0
 18 19  1  0
 19 20  2  0
 20 21  1  0
 21 22  2  0
 22 23  1  0
 22 24  1  0
 24 25  1  0
 25 26  1  0
 26 27  2  0
  3 28  1  0
 28 29  2  0
 29 30  1  0
 30 31  2  0
 31 32  1  0
 32 33  1  0
 31 34  1  0
 34 35  2  0
 26  5  1  0
 35 28  1  0
 25 16  2  0
 24 19  1  0
  1 36  1  0
  1 37  1  0
  1 38  1  0
  2 39  1  0
  2 40  1  0
  3 41  1  0
  4 42  1  0
  4 43  1  0
  6 44  1  0
  8 45  1  0
  8 46  1  0
  9 47  1  0
 11 48  1  0
 11 49  1  0
 11 50  1  0
 12 51  1  0
 13 52  1  0
 13 53  1  0
 13 54  1  0
 15 55  1  0
 15 56  1  0
 15 57  1  0
 17 58  1  0
 18 59  1  0
 23 60  1  0
 23 61  1  0
 29 62  1  0
 30 63  1  0
 32 64  1  0
 32 65  1  0
 33 66  1  0
 34 67  1  0
 35 68  1  0
M  END
>  <Energy>  (948) 
110.27855049488953

>  <compound_id>  (948) 
3817

>  <target_id>  (948) 
1

>  <reference_id>  (948) 
175

>  <inspiration_ids>  (948) 
[131, 175]

>  <energy_score>  (948) 
-98.21311010891611

>  <distance_score>  (948) 
3.4492048650205134

>  <path>  (948) 
/opt/xchem-fragalysis-2/maxwin/BulkDock/SCRATCH/505734/C3817-P175/C3817-P175.minimised.mol

>  <scratch_subdir>  (948) 
/opt/xchem-fragalysis-2/maxwin/BulkDock/SCRATCH/505734/C3817-P175

>  <fragmenstein_runtime>  (948) 
141.27811193466187

>  <fragmenstein_outcome>  (948) 
too moved

>  <fragmenstein_mode>  (948) 
expansion

>  <fragmenstein_error>  (948) 


$$$$
C3820-P131
     RDKit          3D

 48 52  0  0  0  0  0  0  0  0999 V2000
   -0.9833    4.8819   27.7905 C   0  0  0  0  0  0  0  0  0  0  0  0
    0.0602    4.0829   28.3423 O   0  0  0  0  0  0  0  0  0  0  0  0
   -0.2719    2.7877   28.6358 C   0  0  0  0  0  0  0  0  0  0  0  0
    0.3706    2.2794   29.7603 C   0  0  0  0  0  0  0  0  0  0  0  0
    0.1846    0.9538   30.1582 C   0  0  0  0  0  0  0  0  0  0  0  0
   -0.6580    0.0842   29.4513 C   0  0  0  0  0  0  0  0  0  0  0  0
   -0.5809   -1.4053   29.6773 C   0  0  0  0  0  0  0  0  0  0  0  0
   -1.0006   -2.3248   28.6274 C   0  0  0  0  0  0  0  0  0  0  0  0
   -0.4583   -3.5370   28.4805 C   0  0  0  0  0  0  0  0  0  0  0  0
    0.6056   -3.9508   29.2804 C   0  0  0  0  0  0  0  0  0  0  0  0
    1.3452   -5.0348   29.2763 N   0  0  0  0  0  0  0  0  0  0  0  0
    2.1774   -4.9646   30.3505 N   0  0  0  0  0  0  0  0  0  0  0  0
    1.9333   -3.8381   30.9827 C   0  0  0  0  0  0  0  0  0  0  0  0
    2.5990   -3.3943   32.0522 N   0  0  0  0  0  0  0  0  0  0  0  0
    0.8676   -3.1711   30.3813 N   0  0  0  0  0  0  0  0  0  0  0  0
    0.1204   -2.0009   30.6889 C   0  0  0  0  0  0  0  0  0  0  0  0
   -0.1183   -1.5373   32.3651 S   0  0  0  0  0  0  0  0  0  0  0  0
   -0.3371   -3.1331   33.0457 C   0  0  0  0  0  0  0  0  0  0  0  0
    0.2091   -3.5459   34.1720 N   0  0  0  0  0  0  0  0  0  0  0  0
    0.1343   -4.9362   34.1562 N   0  0  0  0  0  0  0  0  0  0  0  0
   -0.4367   -5.2518   33.0158 C   0  0  0  0  0  0  0  0  0  0  0  0
   -0.5709   -6.5346   32.4513 C   0  0  0  0  0  0  0  0  0  0  0  0
   -1.1994   -7.6531   32.9298 C   0  0  0  0  0  0  0  0  0  0  0  0
   -1.2796   -8.5397   31.8409 C   0  0  0  0  0  0  0  0  0  0  0  0
   -0.5757   -8.0165   30.7870 C   0  0  0  0  0  0  0  0  0  0  0  0
   -0.1085   -6.8030   31.1866 N   0  0  0  0  0  0  0  0  0  0  0  0
   -0.8529   -4.1575   32.3162 O   0  0  0  0  0  0  0  0  0  0  0  0
   -1.3149    0.6236   28.3173 C   0  0  0  0  0  0  0  0  0  0  0  0
   -1.1109    1.9532   27.8969 C   0  0  0  0  0  0  0  0  0  0  0  0
   -1.5641    2.4201   26.6912 O   0  0  0  0  0  0  0  0  0  0  0  0
   -2.8982    2.0652   26.3642 C   0  0  0  0  0  0  0  0  0  0  0  0
   -0.7878    5.9214   28.0716 H   0  0  0  0  0  0  0  0  0  0  0  0
   -1.9726    4.6158   28.1787 H   0  0  0  0  0  0  0  0  0  0  0  0
   -0.9625    4.8286   26.6981 H   0  0  0  0  0  0  0  0  0  0  0  0
    1.0549    2.9195   30.3140 H   0  0  0  0  0  0  0  0  0  0  0  0
    0.8050    0.6234   30.9844 H   0  0  0  0  0  0  0  0  0  0  0  0
   -1.8438   -2.0601   27.9964 H   0  0  0  0  0  0  0  0  0  0  0  0
   -0.8568   -4.2254   27.7673 H   0  0  0  0  0  0  0  0  0  0  0  0
    3.2107   -4.0458   32.5377 H   0  0  0  0  0  0  0  0  0  0  0  0
    2.2616   -2.6514   32.6569 H   0  0  0  0  0  0  0  0  0  0  0  0
   -1.6313   -7.7859   33.9140 H   0  0  0  0  0  0  0  0  0  0  0  0
   -1.7580   -9.4955   31.8306 H   0  0  0  0  0  0  0  0  0  0  0  0
   -0.3320   -8.4232   29.8155 H   0  0  0  0  0  0  0  0  0  0  0  0
    0.4849   -6.1945   30.6280 H   0  0  0  0  0  0  0  0  0  0  0  0
   -1.9002   -0.0177   27.6672 H   0  0  0  0  0  0  0  0  0  0  0  0
   -3.2493    2.7543   25.5910 H   0  0  0  0  0  0  0  0  0  0  0  0
   -2.9202    1.0542   25.9584 H   0  0  0  0  0  0  0  0  0  0  0  0
   -3.5691    2.1527   27.2196 H   0  0  0  0  0  0  0  0  0  0  0  0
  1  2  1  0
  2  3  1  0
  3  4  2  0
  4  5  1  0
  5  6  2  0
  6  7  1  0
  7  8  1  0
  8  9  2  0
  9 10  1  0
 10 11  2  0
 11 12  1  0
 12 13  2  0
 13 14  1  0
 13 15  1  0
 15 16  1  0
 16 17  1  0
 17 18  1  0
 18 19  2  0
 19 20  1  0
 20 21  2  0
 21 22  1  0
 22 23  2  0
 23 24  1  0
 24 25  2  0
 25 26  1  0
 21 27  1  0
  6 28  1  0
 28 29  2  0
 29 30  1  0
 30 31  1  0
 29  3  1  0
 16  7  2  0
 27 18  1  0
 15 10  1  0
 26 22  1  0
  1 32  1  0
  1 33  1  0
  1 34  1  0
  4 35  1  0
  5 36  1  0
  8 37  1  0
  9 38  1  0
 14 39  1  0
 14 40  1  0
 23 41  1  0
 24 42  1  0
 25 43  1  0
 26 44  1  0
 28 45  1  0
 31 46  1  0
 31 47  1  0
 31 48  1  0
M  END
>  <Energy>  (949) 
122.90028736974563

>  <compound_id>  (949) 
3820

>  <target_id>  (949) 
1

>  <reference_id>  (949) 
131

>  <inspiration_ids>  (949) 
[131, 186]

>  <energy_score>  (949) 
-25.811838912142775

>  <distance_score>  (949) 
1.5705281837525038

>  <path>  (949) 
/opt/xchem-fragalysis-2/maxwin/BulkDock/SCRATCH/505734/C3820-P131/C3820-P131.minimised.mol

>  <scratch_subdir>  (949) 
/opt/xchem-fragalysis-2/maxwin/BulkDock/SCRATCH/505734/C3820-P131

>  <fragmenstein_runtime>  (949) 
19.75571322441101

>  <fragmenstein_outcome>  (949) 
too moved

>  <fragmenstein_mode>  (949) 
expansion

>  <fragmenstein_error>  (949) 


$$$$
C3820-P186
     RDKit          3D

 48 52  0  0  0  0  0  0  0  0999 V2000
    1.0707    4.5944   30.4049 C   0  0  0  0  0  0  0  0  0  0  0  0
    0.7071    3.4384   31.1511 O   0  0  0  0  0  0  0  0  0  0  0  0
    0.2925    2.3335   30.4575 C   0  0  0  0  0  0  0  0  0  0  0  0
   -0.3921    1.4164   31.2712 C   0  0  0  0  0  0  0  0  0  0  0  0
   -0.9512    0.2486   30.7599 C   0  0  0  0  0  0  0  0  0  0  0  0
   -0.6256   -0.1217   29.4636 C   0  0  0  0  0  0  0  0  0  0  0  0
   -0.5264   -1.5410   29.0383 C   0  0  0  0  0  0  0  0  0  0  0  0
   -0.9643   -1.9260   27.6940 C   0  0  0  0  0  0  0  0  0  0  0  0
   -0.2737   -2.8021   26.9488 C   0  0  0  0  0  0  0  0  0  0  0  0
    0.8511   -3.4423   27.5149 C   0  0  0  0  0  0  0  0  0  0  0  0
    1.7961   -4.1868   26.9856 N   0  0  0  0  0  0  0  0  0  0  0  0
    2.5374   -4.7100   28.0105 N   0  0  0  0  0  0  0  0  0  0  0  0
    2.0875   -4.2114   29.1378 C   0  0  0  0  0  0  0  0  0  0  0  0
    2.5637   -4.5242   30.3658 N   0  0  0  0  0  0  0  0  0  0  0  0
    1.0531   -3.3114   28.8857 N   0  0  0  0  0  0  0  0  0  0  0  0
    0.3814   -2.3440   29.6772 C   0  0  0  0  0  0  0  0  0  0  0  0
    1.0210   -1.9763   31.2812 S   0  0  0  0  0  0  0  0  0  0  0  0
    0.3795   -3.2999   32.1787 C   0  0  0  0  0  0  0  0  0  0  0  0
    0.6841   -3.5835   33.4292 N   0  0  0  0  0  0  0  0  0  0  0  0
    0.2880   -4.8992   33.6355 N   0  0  0  0  0  0  0  0  0  0  0  0
   -0.1998   -5.2945   32.4836 C   0  0  0  0  0  0  0  0  0  0  0  0
   -0.4839   -6.6007   32.0708 C   0  0  0  0  0  0  0  0  0  0  0  0
   -1.1273   -7.6343   32.6895 C   0  0  0  0  0  0  0  0  0  0  0  0
   -1.2665   -8.6209   31.7003 C   0  0  0  0  0  0  0  0  0  0  0  0
   -0.5937   -8.2310   30.5682 C   0  0  0  0  0  0  0  0  0  0  0  0
   -0.1215   -6.9827   30.8032 N   0  0  0  0  0  0  0  0  0  0  0  0
   -0.2913   -4.2975   31.5697 O   0  0  0  0  0  0  0  0  0  0  0  0
    0.0208    0.8072   28.6276 C   0  0  0  0  0  0  0  0  0  0  0  0
    0.4763    2.0333   29.1122 C   0  0  0  0  0  0  0  0  0  0  0  0
    1.1352    2.9066   28.2950 O   0  0  0  0  0  0  0  0  0  0  0  0
    2.3081    2.3537   27.6989 C   0  0  0  0  0  0  0  0  0  0  0  0
    2.0696    4.4763   29.9747 H   0  0  0  0  0  0  0  0  0  0  0  0
    1.1155    5.4358   31.1036 H   0  0  0  0  0  0  0  0  0  0  0  0
    0.3271    4.8439   29.6417 H   0  0  0  0  0  0  0  0  0  0  0  0
   -0.5018    1.6347   32.3321 H   0  0  0  0  0  0  0  0  0  0  0  0
   -1.4646   -0.4328   31.4327 H   0  0  0  0  0  0  0  0  0  0  0  0
   -1.8603   -1.4575   27.2992 H   0  0  0  0  0  0  0  0  0  0  0  0
   -0.5861   -3.0719   25.9463 H   0  0  0  0  0  0  0  0  0  0  0  0
    3.4742   -4.9776   30.3039 H   0  0  0  0  0  0  0  0  0  0  0  0
    2.6542   -3.7484   31.0210 H   0  0  0  0  0  0  0  0  0  0  0  0
   -1.5108   -7.6544   33.7016 H   0  0  0  0  0  0  0  0  0  0  0  0
   -1.7657   -9.5580   31.8037 H   0  0  0  0  0  0  0  0  0  0  0  0
   -0.3993   -8.7457   29.6353 H   0  0  0  0  0  0  0  0  0  0  0  0
    0.4087   -6.4141   30.1509 H   0  0  0  0  0  0  0  0  0  0  0  0
    0.2846    0.5293   27.6132 H   0  0  0  0  0  0  0  0  0  0  0  0
    2.9109    3.1840   27.3190 H   0  0  0  0  0  0  0  0  0  0  0  0
    2.9115    1.8066   28.4321 H   0  0  0  0  0  0  0  0  0  0  0  0
    2.0586    1.7085   26.8533 H   0  0  0  0  0  0  0  0  0  0  0  0
  1  2  1  0
  2  3  1  0
  3  4  2  0
  4  5  1  0
  5  6  2  0
  6  7  1  0
  7  8  1  0
  8  9  2  0
  9 10  1  0
 10 11  2  0
 11 12  1  0
 12 13  2  0
 13 14  1  0
 13 15  1  0
 15 16  1  0
 16 17  1  0
 17 18  1  0
 18 19  2  0
 19 20  1  0
 20 21  2  0
 21 22  1  0
 22 23  2  0
 23 24  1  0
 24 25  2  0
 25 26  1  0
 21 27  1  0
  6 28  1  0
 28 29  2  0
 29 30  1  0
 30 31  1  0
 29  3  1  0
 16  7  2  0
 27 18  1  0
 15 10  1  0
 26 22  1  0
  1 32  1  0
  1 33  1  0
  1 34  1  0
  4 35  1  0
  5 36  1  0
  8 37  1  0
  9 38  1  0
 14 39  1  0
 14 40  1  0
 23 41  1  0
 24 42  1  0
 25 43  1  0
 26 44  1  0
 28 45  1  0
 31 46  1  0
 31 47  1  0
 31 48  1  0
M  END
>  <Energy>  (950) 
116.43726232069278

>  <compound_id>  (950) 
3820

>  <target_id>  (950) 
1

>  <reference_id>  (950) 
186

>  <inspiration_ids>  (950) 
[131, 186]

>  <energy_score>  (950) 
-32.27486396119815

>  <distance_score>  (950) 
1.606678628533254

>  <path>  (950) 
/opt/xchem-fragalysis-2/maxwin/BulkDock/SCRATCH/505734/C3820-P186/C3820-P186.minimised.mol

>  <scratch_subdir>  (950) 
/opt/xchem-fragalysis-2/maxwin/BulkDock/SCRATCH/505734/C3820-P186

>  <fragmenstein_runtime>  (950) 
23.73994016647339

>  <fragmenstein_outcome>  (950) 
too moved

>  <fragmenstein_mode>  (950) 
expansion

>  <fragmenstein_error>  (950) 


$$$$
C3820-P131
     RDKit          3D

 48 52  0  0  0  0  0  0  0  0999 V2000
   -5.5858   -0.8507   37.7492 C   0  0  0  0  0  0  0  0  0  0  0  0
   -4.4129   -1.6395   37.5821 O   0  0  0  0  0  0  0  0  0  0  0  0
   -3.8277   -1.5697   36.3412 C   0  0  0  0  0  0  0  0  0  0  0  0
   -2.4276   -1.5894   36.3775 C   0  0  0  0  0  0  0  0  0  0  0  0
   -1.6802   -1.5091   35.2025 C   0  0  0  0  0  0  0  0  0  0  0  0
   -2.3318   -1.4420   33.9713 C   0  0  0  0  0  0  0  0  0  0  0  0
   -1.6241   -1.1415   32.7093 C   0  0  0  0  0  0  0  0  0  0  0  0
   -1.2926    0.2600   32.4339 C   0  0  0  0  0  0  0  0  0  0  0  0
   -0.7668    0.6476   31.2633 C   0  0  0  0  0  0  0  0  0  0  0  0
   -0.6706   -0.2853   30.2173 C   0  0  0  0  0  0  0  0  0  0  0  0
   -0.4291   -0.1452   28.9379 N   0  0  0  0  0  0  0  0  0  0  0  0
   -0.4464   -1.3972   28.3886 N   0  0  0  0  0  0  0  0  0  0  0  0
   -0.6957   -2.2685   29.3389 C   0  0  0  0  0  0  0  0  0  0  0  0
   -0.9119   -3.5956   29.1549 N   0  0  0  0  0  0  0  0  0  0  0  0
   -0.7924   -1.6226   30.5568 N   0  0  0  0  0  0  0  0  0  0  0  0
   -1.0415   -2.0617   31.8864 C   0  0  0  0  0  0  0  0  0  0  0  0
    0.4213   -2.7711   32.6391 S   0  0  0  0  0  0  0  0  0  0  0  0
   -0.1556   -4.3571   32.8129 C   0  0  0  0  0  0  0  0  0  0  0  0
   -0.5379   -4.9693   33.9108 N   0  0  0  0  0  0  0  0  0  0  0  0
   -0.8370   -6.2591   33.5475 N   0  0  0  0  0  0  0  0  0  0  0  0
   -0.5795   -6.3158   32.2656 C   0  0  0  0  0  0  0  0  0  0  0  0
   -0.6713   -7.4348   31.4540 C   0  0  0  0  0  0  0  0  0  0  0  0
   -1.2827   -8.6234   31.6907 C   0  0  0  0  0  0  0  0  0  0  0  0
   -0.8776   -9.4446   30.6373 C   0  0  0  0  0  0  0  0  0  0  0  0
   -0.1327   -8.7093   29.7480 C   0  0  0  0  0  0  0  0  0  0  0  0
   -0.0609   -7.4509   30.2364 N   0  0  0  0  0  0  0  0  0  0  0  0
   -0.1195   -5.1661   31.7433 O   0  0  0  0  0  0  0  0  0  0  0  0
   -3.7376   -1.4637   33.9319 C   0  0  0  0  0  0  0  0  0  0  0  0
   -4.4987   -1.5397   35.1066 C   0  0  0  0  0  0  0  0  0  0  0  0
   -5.8677   -1.6012   35.1224 O   0  0  0  0  0  0  0  0  0  0  0  0
   -6.5488   -1.5790   33.8739 C   0  0  0  0  0  0  0  0  0  0  0  0
   -6.4759   -1.4317   37.4910 H   0  0  0  0  0  0  0  0  0  0  0  0
   -5.6620   -0.5945   38.8107 H   0  0  0  0  0  0  0  0  0  0  0  0
   -5.5460    0.0893   37.1874 H   0  0  0  0  0  0  0  0  0  0  0  0
   -1.9168   -1.6504   37.3352 H   0  0  0  0  0  0  0  0  0  0  0  0
   -0.5966   -1.4782   35.2689 H   0  0  0  0  0  0  0  0  0  0  0  0
   -1.3720    0.9654   33.2573 H   0  0  0  0  0  0  0  0  0  0  0  0
   -0.4020    1.6516   31.0880 H   0  0  0  0  0  0  0  0  0  0  0  0
   -0.2484   -3.9317   28.4559 H   0  0  0  0  0  0  0  0  0  0  0  0
   -1.7627   -3.6855   28.5691 H   0  0  0  0  0  0  0  0  0  0  0  0
   -1.8641   -8.8702   32.5693 H   0  0  0  0  0  0  0  0  0  0  0  0
   -1.0718  -10.4944   30.5020 H   0  0  0  0  0  0  0  0  0  0  0  0
    0.3987   -9.0526   28.8734 H   0  0  0  0  0  0  0  0  0  0  0  0
    0.4367   -6.6663   29.8325 H   0  0  0  0  0  0  0  0  0  0  0  0
   -4.2196   -1.4093   32.9615 H   0  0  0  0  0  0  0  0  0  0  0  0
   -6.2589   -2.4284   33.2470 H   0  0  0  0  0  0  0  0  0  0  0  0
   -7.6189   -1.6692   34.0797 H   0  0  0  0  0  0  0  0  0  0  0  0
   -6.3874   -0.6290   33.3543 H   0  0  0  0  0  0  0  0  0  0  0  0
  1  2  1  0
  2  3  1  0
  3  4  2  0
  4  5  1  0
  5  6  2  0
  6  7  1  0
  7  8  1  0
  8  9  2  0
  9 10  1  0
 10 11  2  0
 11 12  1  0
 12 13  2  0
 13 14  1  0
 13 15  1  0
 15 16  1  0
 16 17  1  0
 17 18  1  0
 18 19  2  0
 19 20  1  0
 20 21  2  0
 21 22  1  0
 22 23  2  0
 23 24  1  0
 24 25  2  0
 25 26  1  0
 21 27  1  0
  6 28  1  0
 28 29  2  0
 29 30  1  0
 30 31  1  0
 29  3  1  0
 16  7  2  0
 27 18  1  0
 15 10  1  0
 26 22  1  0
  1 32  1  0
  1 33  1  0
  1 34  1  0
  4 35  1  0
  5 36  1  0
  8 37  1  0
  9 38  1  0
 14 39  1  0
 14 40  1  0
 23 41  1  0
 24 42  1  0
 25 43  1  0
 26 44  1  0
 28 45  1  0
 31 46  1  0
 31 47  1  0
 31 48  1  0
M  END
>  <Energy>  (951) 
141.78609484490192

>  <compound_id>  (951) 
3820

>  <target_id>  (951) 
1

>  <reference_id>  (951) 
131

>  <inspiration_ids>  (951) 
[131, 187]

>  <energy_score>  (951) 
-10.501680348264927

>  <distance_score>  (951) 
1.6929226814936846

>  <path>  (951) 
/opt/xchem-fragalysis-2/maxwin/BulkDock/SCRATCH/505734/C3820-P131/C3820-P131.minimised.mol

>  <scratch_subdir>  (951) 
/opt/xchem-fragalysis-2/maxwin/BulkDock/SCRATCH/505734/C3820-P131

>  <fragmenstein_runtime>  (951) 
30.78152585029602

>  <fragmenstein_outcome>  (951) 
too moved

>  <fragmenstein_mode>  (951) 
expansion

>  <fragmenstein_error>  (951) 


$$$$
C3820-P187
     RDKit          3D

 48 52  0  0  0  0  0  0  0  0999 V2000
   -4.0069   -1.2733   38.6906 C   0  0  0  0  0  0  0  0  0  0  0  0
   -2.9180   -1.9953   38.1315 O   0  0  0  0  0  0  0  0  0  0  0  0
   -2.5947   -1.7154   36.8284 C   0  0  0  0  0  0  0  0  0  0  0  0
   -1.2472   -1.9563   36.5278 C   0  0  0  0  0  0  0  0  0  0  0  0
   -0.7391   -1.7196   35.2490 C   0  0  0  0  0  0  0  0  0  0  0  0
   -1.5844   -1.2484   34.2449 C   0  0  0  0  0  0  0  0  0  0  0  0
   -1.0617   -0.9201   32.8959 C   0  0  0  0  0  0  0  0  0  0  0  0
   -0.4423    0.3868   32.7039 C   0  0  0  0  0  0  0  0  0  0  0  0
   -0.1364    0.8647   31.4897 C   0  0  0  0  0  0  0  0  0  0  0  0
   -0.4018    0.0847   30.3441 C   0  0  0  0  0  0  0  0  0  0  0  0
   -0.3092    0.3661   29.0672 N   0  0  0  0  0  0  0  0  0  0  0  0
   -0.6364   -0.7660   28.3749 N   0  0  0  0  0  0  0  0  0  0  0  0
   -0.9163   -1.7165   29.2360 C   0  0  0  0  0  0  0  0  0  0  0  0
   -1.2066   -2.9992   28.9361 N   0  0  0  0  0  0  0  0  0  0  0  0
   -0.8564   -1.2128   30.5309 N   0  0  0  0  0  0  0  0  0  0  0  0
   -1.1945   -1.7239   31.8077 C   0  0  0  0  0  0  0  0  0  0  0  0
   -1.9877   -3.2320   31.9253 S   0  0  0  0  0  0  0  0  0  0  0  0
   -0.7150   -4.2132   32.5818 C   0  0  0  0  0  0  0  0  0  0  0  0
   -0.7929   -4.8082   33.7549 N   0  0  0  0  0  0  0  0  0  0  0  0
   -0.3336   -6.0853   33.5735 N   0  0  0  0  0  0  0  0  0  0  0  0
   -0.0304   -6.1482   32.2999 C   0  0  0  0  0  0  0  0  0  0  0  0
   -0.2059   -7.2911   31.5126 C   0  0  0  0  0  0  0  0  0  0  0  0
   -0.9605   -8.3980   31.7930 C   0  0  0  0  0  0  0  0  0  0  0  0
   -0.7938   -9.2487   30.6998 C   0  0  0  0  0  0  0  0  0  0  0  0
   -0.0518   -8.5979   29.7451 C   0  0  0  0  0  0  0  0  0  0  0  0
    0.2407   -7.3625   30.2277 N   0  0  0  0  0  0  0  0  0  0  0  0
    0.0478   -4.9264   31.7070 O   0  0  0  0  0  0  0  0  0  0  0  0
   -2.9387   -1.0205   34.5353 C   0  0  0  0  0  0  0  0  0  0  0  0
   -3.4589   -1.2844   35.8107 C   0  0  0  0  0  0  0  0  0  0  0  0
   -4.7889   -1.0974   36.0892 O   0  0  0  0  0  0  0  0  0  0  0  0
   -5.6800   -1.5242   35.0601 C   0  0  0  0  0  0  0  0  0  0  0  0
   -3.9057   -1.3161   39.7797 H   0  0  0  0  0  0  0  0  0  0  0  0
   -3.9954   -0.2160   38.4041 H   0  0  0  0  0  0  0  0  0  0  0  0
   -4.9572   -1.7517   38.4360 H   0  0  0  0  0  0  0  0  0  0  0  0
   -0.5861   -2.3345   37.3042 H   0  0  0  0  0  0  0  0  0  0  0  0
    0.3119   -1.9129   35.0517 H   0  0  0  0  0  0  0  0  0  0  0  0
   -0.2415    0.9904   33.5867 H   0  0  0  0  0  0  0  0  0  0  0  0
    0.3097    1.8454   31.3574 H   0  0  0  0  0  0  0  0  0  0  0  0
   -1.6144   -3.0982   27.9962 H   0  0  0  0  0  0  0  0  0  0  0  0
   -1.8166   -3.4830   29.5771 H   0  0  0  0  0  0  0  0  0  0  0  0
   -1.5028   -8.5862   32.7130 H   0  0  0  0  0  0  0  0  0  0  0  0
   -1.1302  -10.2682   30.6011 H   0  0  0  0  0  0  0  0  0  0  0  0
    0.3281   -8.9805   28.8101 H   0  0  0  0  0  0  0  0  0  0  0  0
    0.7572   -6.6322   29.7522 H   0  0  0  0  0  0  0  0  0  0  0  0
   -3.5849   -0.6345   33.7534 H   0  0  0  0  0  0  0  0  0  0  0  0
   -6.6639   -1.6756   35.5145 H   0  0  0  0  0  0  0  0  0  0  0  0
   -5.7831   -0.7482   34.2951 H   0  0  0  0  0  0  0  0  0  0  0  0
   -5.3700   -2.4746   34.6129 H   0  0  0  0  0  0  0  0  0  0  0  0
  1  2  1  0
  2  3  1  0
  3  4  2  0
  4  5  1  0
  5  6  2  0
  6  7  1  0
  7  8  1  0
  8  9  2  0
  9 10  1  0
 10 11  2  0
 11 12  1  0
 12 13  2  0
 13 14  1  0
 13 15  1  0
 15 16  1  0
 16 17  1  0
 17 18  1  0
 18 19  2  0
 19 20  1  0
 20 21  2  0
 21 22  1  0
 22 23  2  0
 23 24  1  0
 24 25  2  0
 25 26  1  0
 21 27  1  0
  6 28  1  0
 28 29  2  0
 29 30  1  0
 30 31  1  0
 29  3  1  0
 16  7  2  0
 27 18  1  0
 15 10  1  0
 26 22  1  0
  1 32  1  0
  1 33  1  0
  1 34  1  0
  4 35  1  0
  5 36  1  0
  8 37  1  0
  9 38  1  0
 14 39  1  0
 14 40  1  0
 23 41  1  0
 24 42  1  0
 25 43  1  0
 26 44  1  0
 28 45  1  0
 31 46  1  0
 31 47  1  0
 31 48  1  0
M  END
>  <Energy>  (952) 
112.8834774446844

>  <compound_id>  (952) 
3820

>  <target_id>  (952) 
1

>  <reference_id>  (952) 
187

>  <inspiration_ids>  (952) 
[131, 187]

>  <energy_score>  (952) 
-39.40429774847996

>  <distance_score>  (952) 
1.8092983736457882

>  <path>  (952) 
/opt/xchem-fragalysis-2/maxwin/BulkDock/SCRATCH/505734/C3820-P187/C3820-P187.minimised.mol

>  <scratch_subdir>  (952) 
/opt/xchem-fragalysis-2/maxwin/BulkDock/SCRATCH/505734/C3820-P187

>  <fragmenstein_runtime>  (952) 
33.419827938079834

>  <fragmenstein_outcome>  (952) 
too moved

>  <fragmenstein_mode>  (952) 
expansion

>  <fragmenstein_error>  (952) 


$$$$
C3821-P131
     RDKit          3D

 52 56  0  0  0  0  0  0  0  0999 V2000
    0.0684    4.3039   26.5204 C   0  0  0  0  0  0  0  0  0  0  0  0
   -0.3438    4.1266   27.8740 O   0  0  0  0  0  0  0  0  0  0  0  0
   -0.4987    2.8177   28.2403 C   0  0  0  0  0  0  0  0  0  0  0  0
    0.1336    2.4545   29.4275 C   0  0  0  0  0  0  0  0  0  0  0  0
    0.1222    1.1279   29.8687 C   0  0  0  0  0  0  0  0  0  0  0  0
   -0.5408    0.1317   29.1402 C   0  0  0  0  0  0  0  0  0  0  0  0
   -0.3092   -1.3192   29.3909 C   0  0  0  0  0  0  0  0  0  0  0  0
   -0.9615   -2.3563   28.6087 C   0  0  0  0  0  0  0  0  0  0  0  0
   -0.3774   -3.5401   28.3853 C   0  0  0  0  0  0  0  0  0  0  0  0
    0.9380   -3.7771   28.8100 C   0  0  0  0  0  0  0  0  0  0  0  0
    1.8221   -4.7209   28.5748 N   0  0  0  0  0  0  0  0  0  0  0  0
    2.8450   -4.5633   29.4763 N   0  0  0  0  0  0  0  0  0  0  0  0
    2.5666   -3.5178   30.2213 C   0  0  0  0  0  0  0  0  0  0  0  0
    3.2928   -3.0485   31.2644 N   0  0  0  0  0  0  0  0  0  0  0  0
    1.3840   -2.9343   29.7921 N   0  0  0  0  0  0  0  0  0  0  0  0
    0.6632   -1.7926   30.2258 C   0  0  0  0  0  0  0  0  0  0  0  0
    0.6177   -1.5835   31.6309 N   0  0  0  0  0  0  0  0  0  0  0  0
   -0.0256   -2.5992   32.2824 C   0  0  0  0  0  0  0  0  0  0  0  0
   -1.3239   -2.7249   32.3561 N   0  0  0  0  0  0  0  0  0  0  0  0
   -1.5913   -4.0494   32.4417 N   0  0  0  0  0  0  0  0  0  0  0  0
   -0.4512   -4.7015   32.5070 C   0  0  0  0  0  0  0  0  0  0  0  0
   -0.3752   -6.1203   32.3109 C   0  0  0  0  0  0  0  0  0  0  0  0
   -1.1006   -6.9192   33.1830 C   0  0  0  0  0  0  0  0  0  0  0  0
   -1.4764   -8.1789   32.7749 C   0  0  0  0  0  0  0  0  0  0  0  0
   -1.0599   -8.6711   31.5480 C   0  0  0  0  0  0  0  0  0  0  0  0
   -0.2621   -7.9127   30.7124 C   0  0  0  0  0  0  0  0  0  0  0  0
    0.0846   -6.6302   31.0946 C   0  0  0  0  0  0  0  0  0  0  0  0
    0.5688   -3.7999   32.5792 N   0  0  0  0  0  0  0  0  0  0  0  0
   -1.2353    0.5322   27.9769 C   0  0  0  0  0  0  0  0  0  0  0  0
   -1.2243    1.8601   27.5360 C   0  0  0  0  0  0  0  0  0  0  0  0
   -1.8271    2.1235   26.3340 O   0  0  0  0  0  0  0  0  0  0  0  0
   -3.0603    2.8182   26.5258 C   0  0  0  0  0  0  0  0  0  0  0  0
    0.6609    5.2230   26.4733 H   0  0  0  0  0  0  0  0  0  0  0  0
   -0.8004    4.4403   25.8709 H   0  0  0  0  0  0  0  0  0  0  0  0
    0.6996    3.4838   26.1589 H   0  0  0  0  0  0  0  0  0  0  0  0
    0.6824    3.2095   29.9866 H   0  0  0  0  0  0  0  0  0  0  0  0
    0.7241    0.9073   30.7432 H   0  0  0  0  0  0  0  0  0  0  0  0
   -1.9841   -2.1896   28.2825 H   0  0  0  0  0  0  0  0  0  0  0  0
   -0.9248   -4.3202   27.8991 H   0  0  0  0  0  0  0  0  0  0  0  0
    4.2754   -3.3166   31.2426 H   0  0  0  0  0  0  0  0  0  0  0  0
    3.1839   -2.0606   31.4937 H   0  0  0  0  0  0  0  0  0  0  0  0
    0.0191   -0.7646   31.7669 H   0  0  0  0  0  0  0  0  0  0  0  0
   -1.4827   -6.5225   34.1217 H   0  0  0  0  0  0  0  0  0  0  0  0
   -2.1278   -8.7541   33.4193 H   0  0  0  0  0  0  0  0  0  0  0  0
   -1.3238   -9.6766   31.2522 H   0  0  0  0  0  0  0  0  0  0  0  0
    0.0906   -8.3323   29.7771 H   0  0  0  0  0  0  0  0  0  0  0  0
    0.6433   -6.0142   30.4029 H   0  0  0  0  0  0  0  0  0  0  0  0
    1.5554   -4.0008   32.5148 H   0  0  0  0  0  0  0  0  0  0  0  0
   -1.7267   -0.1937   27.3317 H   0  0  0  0  0  0  0  0  0  0  0  0
   -3.4155    3.1441   25.5437 H   0  0  0  0  0  0  0  0  0  0  0  0
   -3.8098    2.1427   26.9461 H   0  0  0  0  0  0  0  0  0  0  0  0
   -2.9448    3.7092   27.1506 H   0  0  0  0  0  0  0  0  0  0  0  0
  1  2  1  0
  2  3  1  0
  3  4  2  0
  4  5  1  0
  5  6  2  0
  6  7  1  0
  7  8  1  0
  8  9  2  0
  9 10  1  0
 10 11  2  0
 11 12  1  0
 12 13  2  0
 13 14  1  0
 13 15  1  0
 15 16  1  0
 16 17  1  0
 17 18  1  0
 18 19  2  0
 19 20  1  0
 20 21  2  0
 21 22  1  0
 22 23  2  0
 23 24  1  0
 24 25  2  0
 25 26  1  0
 26 27  2  0
 21 28  1  0
  6 29  1  0
 29 30  2  0
 30 31  1  0
 31 32  1  0
 30  3  1  0
 16  7  2  0
 28 18  1  0
 15 10  1  0
 27 22  1  0
  1 33  1  0
  1 34  1  0
  1 35  1  0
  4 36  1  0
  5 37  1  0
  8 38  1  0
  9 39  1  0
 14 40  1  0
 14 41  1  0
 17 42  1  0
 23 43  1  0
 24 44  1  0
 25 45  1  0
 26 46  1  0
 27 47  1  0
 28 48  1  0
 29 49  1  0
 32 50  1  0
 32 51  1  0
 32 52  1  0
M  END
>  <Energy>  (953) 
158.6067693708647

>  <compound_id>  (953) 
3821

>  <target_id>  (953) 
1

>  <reference_id>  (953) 
131

>  <inspiration_ids>  (953) 
[131, 188]

>  <energy_score>  (953) 
-25.049889977240184

>  <distance_score>  (953) 
1.8935010994555639

>  <path>  (953) 
/opt/xchem-fragalysis-2/maxwin/BulkDock/SCRATCH/505734/C3821-P131/C3821-P131.minimised.mol

>  <scratch_subdir>  (953) 
/opt/xchem-fragalysis-2/maxwin/BulkDock/SCRATCH/505734/C3821-P131

>  <fragmenstein_runtime>  (953) 
83.02456212043762

>  <fragmenstein_outcome>  (953) 
too moved

>  <fragmenstein_mode>  (953) 
expansion

>  <fragmenstein_error>  (953) 


$$$$
C3821-P188
     RDKit          3D

 52 56  0  0  0  0  0  0  0  0999 V2000
    0.2371    4.2916   26.6447 C   0  0  0  0  0  0  0  0  0  0  0  0
    0.0989    4.0054   28.0312 O   0  0  0  0  0  0  0  0  0  0  0  0
   -0.2305    2.7209   28.3629 C   0  0  0  0  0  0  0  0  0  0  0  0
    0.2736    2.3146   29.6006 C   0  0  0  0  0  0  0  0  0  0  0  0
    0.0746    1.0154   30.0781 C   0  0  0  0  0  0  0  0  0  0  0  0
   -0.6249    0.0736   29.3166 C   0  0  0  0  0  0  0  0  0  0  0  0
   -0.5910   -1.3856   29.6390 C   0  0  0  0  0  0  0  0  0  0  0  0
   -1.2086   -2.3614   28.7633 C   0  0  0  0  0  0  0  0  0  0  0  0
   -0.5971   -3.5088   28.4544 C   0  0  0  0  0  0  0  0  0  0  0  0
    0.7254   -3.7457   28.8506 C   0  0  0  0  0  0  0  0  0  0  0  0
    1.6214   -4.6396   28.5024 N   0  0  0  0  0  0  0  0  0  0  0  0
    2.7559   -4.3827   29.2189 N   0  0  0  0  0  0  0  0  0  0  0  0
    2.5223   -3.3415   29.9886 C   0  0  0  0  0  0  0  0  0  0  0  0
    3.4320   -2.7012   30.7616 N   0  0  0  0  0  0  0  0  0  0  0  0
    1.2050   -2.9250   29.8391 N   0  0  0  0  0  0  0  0  0  0  0  0
    0.4204   -1.8791   30.4105 C   0  0  0  0  0  0  0  0  0  0  0  0
    0.4253   -1.6917   31.8140 N   0  0  0  0  0  0  0  0  0  0  0  0
    0.7021   -2.7591   32.6096 C   0  0  0  0  0  0  0  0  0  0  0  0
    1.8740   -3.2645   32.9215 N   0  0  0  0  0  0  0  0  0  0  0  0
    1.7217   -4.6185   33.0634 N   0  0  0  0  0  0  0  0  0  0  0  0
    0.4475   -4.8794   32.8982 C   0  0  0  0  0  0  0  0  0  0  0  0
   -0.1420   -6.1273   32.5206 C   0  0  0  0  0  0  0  0  0  0  0  0
   -1.0106   -6.7766   33.3807 C   0  0  0  0  0  0  0  0  0  0  0  0
   -1.5873   -7.9530   32.9577 C   0  0  0  0  0  0  0  0  0  0  0  0
   -1.2868   -8.4749   31.7061 C   0  0  0  0  0  0  0  0  0  0  0  0
   -0.4416   -7.8193   30.8319 C   0  0  0  0  0  0  0  0  0  0  0  0
    0.1398   -6.6394   31.2466 C   0  0  0  0  0  0  0  0  0  0  0  0
   -0.2535   -3.7017   32.8729 N   0  0  0  0  0  0  0  0  0  0  0  0
   -1.1738    0.5094   28.0906 C   0  0  0  0  0  0  0  0  0  0  0  0
   -0.9941    1.8191   27.6256 C   0  0  0  0  0  0  0  0  0  0  0  0
   -1.4845    2.1123   26.3802 O   0  0  0  0  0  0  0  0  0  0  0  0
   -2.8022    2.6505   26.4771 C   0  0  0  0  0  0  0  0  0  0  0  0
    0.8670    5.1823   26.5542 H   0  0  0  0  0  0  0  0  0  0  0  0
   -0.7317    4.5353   26.2013 H   0  0  0  0  0  0  0  0  0  0  0  0
    0.7370    3.4828   26.1005 H   0  0  0  0  0  0  0  0  0  0  0  0
    0.8650    3.0172   30.1847 H   0  0  0  0  0  0  0  0  0  0  0  0
    0.5644    0.7570   31.0120 H   0  0  0  0  0  0  0  0  0  0  0  0
   -2.1994   -2.1558   28.3747 H   0  0  0  0  0  0  0  0  0  0  0  0
   -1.0915   -4.2321   27.8461 H   0  0  0  0  0  0  0  0  0  0  0  0
    4.2795   -3.2442   30.9016 H   0  0  0  0  0  0  0  0  0  0  0  0
    3.0739   -2.4291   31.6805 H   0  0  0  0  0  0  0  0  0  0  0  0
   -0.4052   -1.1620   32.0735 H   0  0  0  0  0  0  0  0  0  0  0  0
   -1.2276   -6.3935   34.3749 H   0  0  0  0  0  0  0  0  0  0  0  0
   -2.2499   -8.4841   33.6321 H   0  0  0  0  0  0  0  0  0  0  0  0
   -1.6694   -9.4464   31.4401 H   0  0  0  0  0  0  0  0  0  0  0  0
   -0.1806   -8.2628   29.8763 H   0  0  0  0  0  0  0  0  0  0  0  0
    0.8449   -6.1319   30.5927 H   0  0  0  0  0  0  0  0  0  0  0  0
   -1.2329   -3.6250   32.6585 H   0  0  0  0  0  0  0  0  0  0  0  0
   -1.6807   -0.1800   27.4176 H   0  0  0  0  0  0  0  0  0  0  0  0
   -3.0892    3.0163   25.4869 H   0  0  0  0  0  0  0  0  0  0  0  0
   -3.5147    1.8740   26.7697 H   0  0  0  0  0  0  0  0  0  0  0  0
   -2.8309    3.4931   27.1713 H   0  0  0  0  0  0  0  0  0  0  0  0
  1  2  1  0
  2  3  1  0
  3  4  2  0
  4  5  1  0
  5  6  2  0
  6  7  1  0
  7  8  1  0
  8  9  2  0
  9 10  1  0
 10 11  2  0
 11 12  1  0
 12 13  2  0
 13 14  1  0
 13 15  1  0
 15 16  1  0
 16 17  1  0
 17 18  1  0
 18 19  2  0
 19 20  1  0
 20 21  2  0
 21 22  1  0
 22 23  2  0
 23 24  1  0
 24 25  2  0
 25 26  1  0
 26 27  2  0
 21 28  1  0
  6 29  1  0
 29 30  2  0
 30 31  1  0
 31 32  1  0
 30  3  1  0
 16  7  2  0
 28 18  1  0
 15 10  1  0
 27 22  1  0
  1 33  1  0
  1 34  1  0
  1 35  1  0
  4 36  1  0
  5 37  1  0
  8 38  1  0
  9 39  1  0
 14 40  1  0
 14 41  1  0
 17 42  1  0
 23 43  1  0
 24 44  1  0
 25 45  1  0
 26 46  1  0
 27 47  1  0
 28 48  1  0
 29 49  1  0
 32 50  1  0
 32 51  1  0
 32 52  1  0
M  END
>  <Energy>  (954) 
162.76794437229432

>  <compound_id>  (954) 
3821

>  <target_id>  (954) 
1

>  <reference_id>  (954) 
188

>  <inspiration_ids>  (954) 
[131, 188]

>  <energy_score>  (954) 
-20.888714975809876

>  <distance_score>  (954) 
1.7248397087168301

>  <path>  (954) 
/opt/xchem-fragalysis-2/maxwin/BulkDock/SCRATCH/505734/C3821-P188/C3821-P188.minimised.mol

>  <scratch_subdir>  (954) 
/opt/xchem-fragalysis-2/maxwin/BulkDock/SCRATCH/505734/C3821-P188

>  <fragmenstein_runtime>  (954) 
75.65347099304199

>  <fragmenstein_outcome>  (954) 
too moved

>  <fragmenstein_mode>  (954) 
expansion

>  <fragmenstein_error>  (954) 


$$$$
C3822-P131
     RDKit          3D

 61 65  0  0  0  0  0  0  0  0999 V2000
   -4.1796    0.4248   35.8866 C   0  0  0  0  0  0  0  0  0  0  0  0
   -2.9269    0.7256   35.2840 O   0  0  0  0  0  0  0  0  0  0  0  0
   -2.0291   -0.2987   35.1513 C   0  0  0  0  0  0  0  0  0  0  0  0
   -2.2419   -1.6055   35.5864 C   0  0  0  0  0  0  0  0  0  0  0  0
   -1.2975   -2.6094   35.3260 C   0  0  0  0  0  0  0  0  0  0  0  0
   -0.1242   -2.3519   34.6010 C   0  0  0  0  0  0  0  0  0  0  0  0
    0.8103   -3.5079   34.2562 C   0  0  0  0  0  0  0  0  0  0  0  0
    2.3321   -3.2383   34.4608 C   0  0  0  0  0  0  0  0  0  0  0  0
    3.2694   -4.1949   33.6893 C   0  0  0  0  0  0  0  0  0  0  0  0
    2.5846   -5.4830   33.4830 C   0  0  0  0  0  0  0  0  0  0  0  0
    2.9007   -6.6558   33.9676 N   0  0  0  0  0  0  0  0  0  0  0  0
    1.8183   -7.4632   33.8533 N   0  0  0  0  0  0  0  0  0  0  0  0
    0.8928   -6.8147   33.1929 C   0  0  0  0  0  0  0  0  0  0  0  0
   -0.2915   -7.3402   32.8110 N   0  0  0  0  0  0  0  0  0  0  0  0
    1.3121   -5.5143   32.9811 N   0  0  0  0  0  0  0  0  0  0  0  0
    0.5523   -4.2342   32.9040 C   0  0  0  0  0  0  0  0  0  0  0  0
   -0.9103   -4.5425   32.6841 C   0  0  0  0  0  0  0  0  0  0  0  0
   -1.0218   -4.9346   31.2347 C   0  0  0  0  0  0  0  0  0  0  0  0
   -1.2627   -3.6713   30.3684 C   0  0  0  0  0  0  0  0  0  0  0  0
   -0.4783   -2.4488   30.8466 C   0  0  0  0  0  0  0  0  0  0  0  0
   -0.4295   -1.2144   29.9412 C   0  0  0  0  0  0  0  0  0  0  0  0
    0.1210   -0.0127   30.4266 C   0  0  0  0  0  0  0  0  0  0  0  0
    0.0551    1.1837   29.7018 C   0  0  0  0  0  0  0  0  0  0  0  0
   -0.5957    1.2241   28.4769 C   0  0  0  0  0  0  0  0  0  0  0  0
   -1.1676    0.0608   27.9780 C   0  0  0  0  0  0  0  0  0  0  0  0
   -1.0869   -1.1423   28.6992 C   0  0  0  0  0  0  0  0  0  0  0  0
    1.1068   -3.0840   31.4488 S   0  0  0  0  0  0  0  0  0  0  0  0
    1.7088   -3.9113   30.4152 O   0  0  0  0  0  0  0  0  0  0  0  0
    1.8740   -1.9799   31.9786 O   0  0  0  0  0  0  0  0  0  0  0  0
    0.1161   -1.0213   34.2432 C   0  0  0  0  0  0  0  0  0  0  0  0
   -0.8179   -0.0090   34.5122 C   0  0  0  0  0  0  0  0  0  0  0  0
   -0.4874    1.2349   34.0323 O   0  0  0  0  0  0  0  0  0  0  0  0
   -0.4491    2.2231   35.0617 C   0  0  0  0  0  0  0  0  0  0  0  0
   -4.7278   -0.3250   35.3066 H   0  0  0  0  0  0  0  0  0  0  0  0
   -4.7760    1.3422   35.8913 H   0  0  0  0  0  0  0  0  0  0  0  0
   -4.0503    0.1066   36.9262 H   0  0  0  0  0  0  0  0  0  0  0  0
   -3.1438   -1.8952   36.1158 H   0  0  0  0  0  0  0  0  0  0  0  0
   -1.5170   -3.6177   35.6777 H   0  0  0  0  0  0  0  0  0  0  0  0
    0.5841   -4.2559   35.0369 H   0  0  0  0  0  0  0  0  0  0  0  0
    2.5352   -3.3575   35.5357 H   0  0  0  0  0  0  0  0  0  0  0  0
    2.6286   -2.2056   34.2551 H   0  0  0  0  0  0  0  0  0  0  0  0
    4.1910   -4.3381   34.2650 H   0  0  0  0  0  0  0  0  0  0  0  0
    3.5757   -3.7704   32.7290 H   0  0  0  0  0  0  0  0  0  0  0  0
   -0.5571   -8.1076   33.4402 H   0  0  0  0  0  0  0  0  0  0  0  0
   -0.2125   -7.8145   31.9110 H   0  0  0  0  0  0  0  0  0  0  0  0
   -1.5702   -3.6933   32.8748 H   0  0  0  0  0  0  0  0  0  0  0  0
   -1.2769   -5.3104   33.3679 H   0  0  0  0  0  0  0  0  0  0  0  0
   -1.7567   -5.7194   31.2113 H   0  0  0  0  0  0  0  0  0  0  0  0
   -0.1428   -5.4564   30.8381 H   0  0  0  0  0  0  0  0  0  0  0  0
   -2.3033   -3.3573   30.4292 H   0  0  0  0  0  0  0  0  0  0  0  0
   -1.0267   -3.9144   29.3269 H   0  0  0  0  0  0  0  0  0  0  0  0
   -0.9767   -2.0633   31.7444 H   0  0  0  0  0  0  0  0  0  0  0  0
    0.5995    0.0307   31.4024 H   0  0  0  0  0  0  0  0  0  0  0  0
    0.4960    2.0896   30.1113 H   0  0  0  0  0  0  0  0  0  0  0  0
   -0.6679    2.1545   27.9207 H   0  0  0  0  0  0  0  0  0  0  0  0
   -1.6866    0.0719   27.0214 H   0  0  0  0  0  0  0  0  0  0  0  0
   -1.5716   -2.0119   28.2588 H   0  0  0  0  0  0  0  0  0  0  0  0
    1.0349   -0.7216   33.7474 H   0  0  0  0  0  0  0  0  0  0  0  0
   -1.4165    2.7274   35.1400 H   0  0  0  0  0  0  0  0  0  0  0  0
   -0.1485    1.8124   36.0326 H   0  0  0  0  0  0  0  0  0  0  0  0
    0.2927    2.9739   34.7723 H   0  0  0  0  0  0  0  0  0  0  0  0
  1  2  1  0
  2  3  1  0
  3  4  2  0
  4  5  1  0
  5  6  2  0
  6  7  1  0
  7  8  1  0
  8  9  1  0
  9 10  1  0
 10 11  2  0
 11 12  1  0
 12 13  2  0
 13 14  1  0
 13 15  1  0
 15 16  1  0
 16 17  1  0
 17 18  1  0
 18 19  1  0
 19 20  1  0
 20 21  1  0
 21 22  2  0
 22 23  1  0
 23 24  2  0
 24 25  1  0
 25 26  2  0
 20 27  1  0
 27 28  2  0
 27 29  2  0
  6 30  1  0
 30 31  2  0
 31 32  1  0
 32 33  1  0
 31  3  1  0
 16  7  1  0
 26 21  1  0
 15 10  1  0
 27 16  1  0
  1 34  1  0
  1 35  1  0
  1 36  1  0
  4 37  1  0
  5 38  1  0
  7 39  1  0
  8 40  1  0
  8 41  1  0
  9 42  1  0
  9 43  1  0
 14 44  1  0
 14 45  1  0
 17 46  1  0
 17 47  1  0
 18 48  1  0
 18 49  1  0
 19 50  1  0
 19 51  1  0
 20 52  1  0
 22 53  1  0
 23 54  1  0
 24 55  1  0
 25 56  1  0
 26 57  1  0
 30 58  1  0
 33 59  1  0
 33 60  1  0
 33 61  1  0
M  END
>  <Energy>  (955) 
108.07292148044871

>  <compound_id>  (955) 
3822

>  <target_id>  (955) 
1

>  <reference_id>  (955) 
131

>  <inspiration_ids>  (955) 
[131, 189]

>  <energy_score>  (955) 
-63.690913755467875

>  <distance_score>  (955) 
2.745897212143604

>  <path>  (955) 
/opt/xchem-fragalysis-2/maxwin/BulkDock/SCRATCH/505734/C3822-P131/C3822-P131.minimised.mol

>  <scratch_subdir>  (955) 
/opt/xchem-fragalysis-2/maxwin/BulkDock/SCRATCH/505734/C3822-P131

>  <fragmenstein_runtime>  (955) 
23.113128662109375

>  <fragmenstein_outcome>  (955) 
too moved

>  <fragmenstein_mode>  (955) 
expansion

>  <fragmenstein_error>  (955) 


$$$$
C3822-P189
     RDKit          3D

 61 65  0  0  0  0  0  0  0  0999 V2000
   -2.2419   -3.4308   39.9633 C   0  0  0  0  0  0  0  0  0  0  0  0
   -1.5915   -4.4749   39.2515 O   0  0  0  0  0  0  0  0  0  0  0  0
   -1.3549   -4.2952   37.9179 C   0  0  0  0  0  0  0  0  0  0  0  0
   -1.7754   -3.1790   37.1920 C   0  0  0  0  0  0  0  0  0  0  0  0
   -1.4296   -3.0271   35.8430 C   0  0  0  0  0  0  0  0  0  0  0  0
   -0.6498   -3.9857   35.1717 C   0  0  0  0  0  0  0  0  0  0  0  0
    0.0890   -3.5401   33.9163 C   0  0  0  0  0  0  0  0  0  0  0  0
    1.5652   -3.1778   34.4094 C   0  0  0  0  0  0  0  0  0  0  0  0
    2.7405   -3.9408   33.7508 C   0  0  0  0  0  0  0  0  0  0  0  0
    2.2996   -5.3015   33.4077 C   0  0  0  0  0  0  0  0  0  0  0  0
    2.7959   -6.4405   33.8108 N   0  0  0  0  0  0  0  0  0  0  0  0
    1.8196   -7.3794   33.7143 N   0  0  0  0  0  0  0  0  0  0  0  0
    0.7620   -6.8209   33.1825 C   0  0  0  0  0  0  0  0  0  0  0  0
   -0.4673   -7.3808   33.1491 N   0  0  0  0  0  0  0  0  0  0  0  0
    1.0672   -5.5084   32.8671 N   0  0  0  0  0  0  0  0  0  0  0  0
    0.1794   -4.3699   32.6041 C   0  0  0  0  0  0  0  0  0  0  0  0
   -1.0190   -4.8470   31.7935 C   0  0  0  0  0  0  0  0  0  0  0  0
   -0.4911   -5.1808   30.3731 C   0  0  0  0  0  0  0  0  0  0  0  0
   -0.6129   -3.9382   29.4434 C   0  0  0  0  0  0  0  0  0  0  0  0
   -0.4430   -2.6175   30.2116 C   0  0  0  0  0  0  0  0  0  0  0  0
   -0.4286   -1.2953   29.4276 C   0  0  0  0  0  0  0  0  0  0  0  0
    0.4409   -0.2232   29.6847 C   0  0  0  0  0  0  0  0  0  0  0  0
    0.2622    1.0399   29.0991 C   0  0  0  0  0  0  0  0  0  0  0  0
   -0.7832    1.2658   28.2154 C   0  0  0  0  0  0  0  0  0  0  0  0
   -1.6403    0.2189   27.9063 C   0  0  0  0  0  0  0  0  0  0  0  0
   -1.4696   -1.0385   28.5076 C   0  0  0  0  0  0  0  0  0  0  0  0
    0.9296   -2.9254   31.3550 S   0  0  0  0  0  0  0  0  0  0  0  0
    2.0497   -3.4599   30.6017 O   0  0  0  0  0  0  0  0  0  0  0  0
    1.1115   -1.7107   32.1261 O   0  0  0  0  0  0  0  0  0  0  0  0
   -0.3096   -5.1393   35.8896 C   0  0  0  0  0  0  0  0  0  0  0  0
   -0.6409   -5.2939   37.2447 C   0  0  0  0  0  0  0  0  0  0  0  0
   -0.1946   -6.4767   37.7811 O   0  0  0  0  0  0  0  0  0  0  0  0
    0.3839   -6.3792   39.0785 C   0  0  0  0  0  0  0  0  0  0  0  0
   -1.6393   -2.5166   39.9526 H   0  0  0  0  0  0  0  0  0  0  0  0
   -2.3439   -3.7502   41.0049 H   0  0  0  0  0  0  0  0  0  0  0  0
   -3.2470   -3.2412   39.5739 H   0  0  0  0  0  0  0  0  0  0  0  0
   -2.3478   -2.3822   37.6554 H   0  0  0  0  0  0  0  0  0  0  0  0
   -1.7129   -2.0984   35.3500 H   0  0  0  0  0  0  0  0  0  0  0  0
   -0.4108   -2.6010   33.6450 H   0  0  0  0  0  0  0  0  0  0  0  0
    1.6555   -3.3510   35.4920 H   0  0  0  0  0  0  0  0  0  0  0  0
    1.7418   -2.0983   34.3316 H   0  0  0  0  0  0  0  0  0  0  0  0
    3.5712   -3.9873   34.4656 H   0  0  0  0  0  0  0  0  0  0  0  0
    3.1380   -3.4140   32.8818 H   0  0  0  0  0  0  0  0  0  0  0  0
   -1.1346   -6.9348   33.7802 H   0  0  0  0  0  0  0  0  0  0  0  0
   -0.4589   -8.3527   33.4682 H   0  0  0  0  0  0  0  0  0  0  0  0
   -1.7988   -4.0847   31.7741 H   0  0  0  0  0  0  0  0  0  0  0  0
   -1.5275   -5.7055   32.2087 H   0  0  0  0  0  0  0  0  0  0  0  0
   -0.9381   -6.0833   29.9551 H   0  0  0  0  0  0  0  0  0  0  0  0
    0.5631   -5.4851   30.3958 H   0  0  0  0  0  0  0  0  0  0  0  0
   -1.5808   -3.9270   28.9557 H   0  0  0  0  0  0  0  0  0  0  0  0
    0.1377   -4.0110   28.6483 H   0  0  0  0  0  0  0  0  0  0  0  0
   -1.2986   -2.4529   30.8772 H   0  0  0  0  0  0  0  0  0  0  0  0
    1.2915   -0.3132   30.3536 H   0  0  0  0  0  0  0  0  0  0  0  0
    0.9533    1.8458   29.3354 H   0  0  0  0  0  0  0  0  0  0  0  0
   -0.9220    2.2426   27.7599 H   0  0  0  0  0  0  0  0  0  0  0  0
   -2.4483    0.3663   27.1930 H   0  0  0  0  0  0  0  0  0  0  0  0
   -2.1831   -1.8183   28.2427 H   0  0  0  0  0  0  0  0  0  0  0  0
    0.3563   -5.8924   35.4879 H   0  0  0  0  0  0  0  0  0  0  0  0
   -0.3794   -6.5245   39.8483 H   0  0  0  0  0  0  0  0  0  0  0  0
    1.1064   -7.1954   39.1787 H   0  0  0  0  0  0  0  0  0  0  0  0
    0.9264   -5.4390   39.2280 H   0  0  0  0  0  0  0  0  0  0  0  0
  1  2  1  0
  2  3  1  0
  3  4  2  0
  4  5  1  0
  5  6  2  0
  6  7  1  0
  7  8  1  0
  8  9  1  0
  9 10  1  0
 10 11  2  0
 11 12  1  0
 12 13  2  0
 13 14  1  0
 13 15  1  0
 15 16  1  0
 16 17  1  0
 17 18  1  0
 18 19  1  0
 19 20  1  0
 20 21  1  0
 21 22  2  0
 22 23  1  0
 23 24  2  0
 24 25  1  0
 25 26  2  0
 20 27  1  0
 27 28  2  0
 27 29  2  0
  6 30  1  0
 30 31  2  0
 31 32  1  0
 32 33  1  0
 31  3  1  0
 16  7  1  0
 26 21  1  0
 15 10  1  0
 27 16  1  0
  1 34  1  0
  1 35  1  0
  1 36  1  0
  4 37  1  0
  5 38  1  0
  7 39  1  0
  8 40  1  0
  8 41  1  0
  9 42  1  0
  9 43  1  0
 14 44  1  0
 14 45  1  0
 17 46  1  0
 17 47  1  0
 18 48  1  0
 18 49  1  0
 19 50  1  0
 19 51  1  0
 20 52  1  0
 22 53  1  0
 23 54  1  0
 24 55  1  0
 25 56  1  0
 26 57  1  0
 30 58  1  0
 33 59  1  0
 33 60  1  0
 33 61  1  0
M  END
>  <Energy>  (956) 
133.2816010539141

>  <compound_id>  (956) 
3822

>  <target_id>  (956) 
1

>  <reference_id>  (956) 
189

>  <inspiration_ids>  (956) 
[131, 189]

>  <energy_score>  (956) 
-38.482234182004845

>  <distance_score>  (956) 
2.8198061851428533

>  <path>  (956) 
/opt/xchem-fragalysis-2/maxwin/BulkDock/SCRATCH/505734/C3822-P189/C3822-P189.minimised.mol

>  <scratch_subdir>  (956) 
/opt/xchem-fragalysis-2/maxwin/BulkDock/SCRATCH/505734/C3822-P189

>  <fragmenstein_runtime>  (956) 
23.740972995758057

>  <fragmenstein_outcome>  (956) 
too moved

>  <fragmenstein_mode>  (956) 
expansion

>  <fragmenstein_error>  (956) 


$$$$
C3822-P131
     RDKit          2D

  0  0  0  0  0  0  0  0  0  0999 V2000
M  END
>  <compound_id>  (957) 
3822

>  <target_id>  (957) 
1

>  <reference_id>  (957) 
131

>  <inspiration_ids>  (957) 
[131, 190]

>  <energy_score>  (957) 
nan

>  <distance_score>  (957) 
nan

>  <path>  (957) 
/opt/xchem-fragalysis-2/maxwin/BulkDock/SCRATCH/505734/C3822-P131/C3822-P131.minimised.mol

>  <scratch_subdir>  (957) 
/opt/xchem-fragalysis-2/maxwin/BulkDock/SCRATCH/505734/C3822-P131

>  <fragmenstein_runtime>  (957) 
3.398944139480591

>  <fragmenstein_outcome>  (957) 
too distant

>  <fragmenstein_mode>  (957) 
expansion

>  <fragmenstein_error>  (957) 
DistanceError: hit1

$$$$
C3823-P131
     RDKit          3D

 73 78  0  0  0  0  0  0  0  0999 V2000
   -2.8968    1.8513   26.4193 C   0  0  0  0  0  0  0  0  0  0  0  0
   -2.2699    0.6889   26.9745 O   0  0  0  0  0  0  0  0  0  0  0  0
   -1.3123    0.9748   27.9076 C   0  0  0  0  0  0  0  0  0  0  0  0
   -0.4758    2.0891   27.7663 C   0  0  0  0  0  0  0  0  0  0  0  0
    0.4293    2.4386   28.7716 C   0  0  0  0  0  0  0  0  0  0  0  0
    1.2242    3.6671   28.6433 C   0  0  0  0  0  0  0  0  0  0  0  0
    2.2865    3.8830   27.6586 C   0  0  0  0  0  0  0  0  0  0  0  0
    2.9404    5.0601   27.5654 C   0  0  0  0  0  0  0  0  0  0  0  0
    2.5865    6.1317   28.4322 C   0  0  0  0  0  0  0  0  0  0  0  0
    3.0318    7.3611   28.5744 N   0  0  0  0  0  0  0  0  0  0  0  0
    2.2826    7.9669   29.5668 N   0  0  0  0  0  0  0  0  0  0  0  0
    1.3936    7.1009   30.0038 C   0  0  0  0  0  0  0  0  0  0  0  0
    0.4287    7.2913   30.9344 N   0  0  0  0  0  0  0  0  0  0  0  0
    1.5656    5.9038   29.3387 N   0  0  0  0  0  0  0  0  0  0  0  0
    0.9046    4.6895   29.4587 C   0  0  0  0  0  0  0  0  0  0  0  0
    0.4977    1.6644   29.9290 C   0  0  0  0  0  0  0  0  0  0  0  0
   -0.3080    0.5382   30.0536 C   0  0  0  0  0  0  0  0  0  0  0  0
   -1.1625    0.1457   29.0237 C   0  0  0  0  0  0  0  0  0  0  0  0
   -1.8827   -1.0142   29.1849 O   0  0  0  0  0  0  0  0  0  0  0  0
   -1.0357   -2.1690   29.0308 C   0  0  0  0  0  0  0  0  0  0  0  0
   -0.2965   -2.4829   30.2554 N   0  0  0  0  0  0  0  0  0  0  0  0
    0.5826   -3.6352   30.1090 C   0  0  0  0  0  0  0  0  0  0  0  0
    1.6688   -3.8333   31.2168 C   0  0  0  0  0  0  0  0  0  0  0  0
    1.5876   -3.1185   32.4928 N   0  0  0  0  0  0  0  0  0  0  0  0
    1.7939   -1.6605   32.3958 C   0  0  0  0  0  0  0  0  0  0  0  0
    0.9132   -0.8719   33.3198 C   0  0  0  0  0  0  0  0  0  0  0  0
    1.3945    0.2915   33.8569 O   0  0  0  0  0  0  0  0  0  0  0  0
    0.3314    0.7955   34.5496 C   0  0  0  0  0  0  0  0  0  0  0  0
   -0.7713    0.0777   34.5066 N   0  0  0  0  0  0  0  0  0  0  0  0
   -0.4060   -0.9975   33.7325 C   0  0  0  0  0  0  0  0  0  0  0  0
   -1.1964   -2.1431   33.3198 C   0  0  0  0  0  0  0  0  0  0  0  0
   -2.0874   -2.0676   32.5703 O   0  0  0  0  0  0  0  0  0  0  0  0
   -0.5458   -3.3742   33.9766 N   0  0  0  0  0  0  0  0  0  0  0  0
   -0.7746   -4.6913   33.7904 C   0  0  0  0  0  0  0  0  0  0  0  0
   -1.0847   -5.1310   32.5663 C   0  0  0  0  0  0  0  0  0  0  0  0
   -1.1100   -6.4430   32.2317 N   0  0  0  0  0  0  0  0  0  0  0  0
   -0.9197   -7.4521   33.1284 C   0  0  0  0  0  0  0  0  0  0  0  0
   -1.0540   -8.5909   32.7116 O   0  0  0  0  0  0  0  0  0  0  0  0
   -0.5391   -7.0204   34.5219 C   0  0  0  0  0  0  0  0  0  0  0  0
   -0.2819   -7.9187   35.5452 C   0  0  0  0  0  0  0  0  0  0  0  0
    0.1249   -7.5171   36.8212 C   0  0  0  0  0  0  0  0  0  0  0  0
    0.2301   -6.1740   37.1158 C   0  0  0  0  0  0  0  0  0  0  0  0
   -0.0639   -5.2510   36.1210 C   0  0  0  0  0  0  0  0  0  0  0  0
   -0.4259   -5.6613   34.8206 C   0  0  0  0  0  0  0  0  0  0  0  0
   -2.3380    2.1938   25.5429 H   0  0  0  0  0  0  0  0  0  0  0  0
   -3.9041    1.5860   26.0949 H   0  0  0  0  0  0  0  0  0  0  0  0
   -3.0049    2.6618   27.1481 H   0  0  0  0  0  0  0  0  0  0  0  0
   -0.5387    2.7168   26.8819 H   0  0  0  0  0  0  0  0  0  0  0  0
    2.5404    3.0580   26.9983 H   0  0  0  0  0  0  0  0  0  0  0  0
    3.7274    5.2189   26.8376 H   0  0  0  0  0  0  0  0  0  0  0  0
    0.2258    8.2665   31.1343 H   0  0  0  0  0  0  0  0  0  0  0  0
   -0.4274    6.7340   30.8680 H   0  0  0  0  0  0  0  0  0  0  0  0
    0.1331    4.6291   30.2109 H   0  0  0  0  0  0  0  0  0  0  0  0
    1.1674    1.9347   30.7413 H   0  0  0  0  0  0  0  0  0  0  0  0
   -0.2786   -0.0399   30.9656 H   0  0  0  0  0  0  0  0  0  0  0  0
   -0.3590   -2.0284   28.1791 H   0  0  0  0  0  0  0  0  0  0  0  0
   -1.6943   -3.0053   28.8020 H   0  0  0  0  0  0  0  0  0  0  0  0
   -0.9907   -2.6015   30.9883 H   0  0  0  0  0  0  0  0  0  0  0  0
    1.1322   -3.5441   29.1623 H   0  0  0  0  0  0  0  0  0  0  0  0
   -0.0128   -4.5492   30.0109 H   0  0  0  0  0  0  0  0  0  0  0  0
    1.7027   -4.9064   31.4435 H   0  0  0  0  0  0  0  0  0  0  0  0
    2.6468   -3.6063   30.7712 H   0  0  0  0  0  0  0  0  0  0  0  0
    2.2893   -3.4982   33.1267 H   0  0  0  0  0  0  0  0  0  0  0  0
    2.8421   -1.4520   32.6447 H   0  0  0  0  0  0  0  0  0  0  0  0
    1.6613   -1.2878   31.3770 H   0  0  0  0  0  0  0  0  0  0  0  0
    0.4961    1.7334   35.0625 H   0  0  0  0  0  0  0  0  0  0  0  0
    0.1533   -3.0723   34.6399 H   0  0  0  0  0  0  0  0  0  0  0  0
   -1.3125   -4.4547   31.7610 H   0  0  0  0  0  0  0  0  0  0  0  0
   -1.3550   -6.7462   31.2996 H   0  0  0  0  0  0  0  0  0  0  0  0
   -0.4176   -8.9665   35.3836 H   0  0  0  0  0  0  0  0  0  0  0  0
    0.3131   -8.2712   37.5836 H   0  0  0  0  0  0  0  0  0  0  0  0
    0.5035   -5.8477   38.1150 H   0  0  0  0  0  0  0  0  0  0  0  0
   -0.0324   -4.1997   36.3934 H   0  0  0  0  0  0  0  0  0  0  0  0
  1  2  1  0
  2  3  1  0
  3  4  2  0
  4  5  1  0
  5  6  1  0
  6  7  1  0
  7  8  2  0
  8  9  1  0
  9 10  2  0
 10 11  1  0
 11 12  2  0
 12 13  1  0
 12 14  1  0
 14 15  1  0
  5 16  2  0
 16 17  1  0
 17 18  2  0
 18 19  1  0
 19 20  1  0
 20 21  1  0
 21 22  1  0
 22 23  1  0
 23 24  1  0
 24 25  1  0
 25 26  1  0
 26 27  1  0
 27 28  1  0
 28 29  2  0
 29 30  1  0
 30 31  1  0
 31 32  2  0
 31 33  1  0
 33 34  1  0
 34 35  2  0
 35 36  1  0
 36 37  1  0
 37 38  2  0
 37 39  1  0
 39 40  2  0
 40 41  1  0
 41 42  2  0
 42 43  1  0
 43 44  2  0
 18  3  1  0
 30 26  2  0
 44 34  1  0
 15  6  2  0
 44 39  1  0
 14  9  1  0
  1 45  1  0
  1 46  1  0
  1 47  1  0
  4 48  1  0
  7 49  1  0
  8 50  1  0
 13 51  1  0
 13 52  1  0
 15 53  1  0
 16 54  1  0
 17 55  1  0
 20 56  1  0
 20 57  1  0
 21 58  1  0
 22 59  1  0
 22 60  1  0
 23 61  1  0
 23 62  1  0
 24 63  1  0
 25 64  1  0
 25 65  1  0
 28 66  1  0
 33 67  1  0
 35 68  1  0
 36 69  1  0
 40 70  1  0
 41 71  1  0
 42 72  1  0
 43 73  1  0
M  END
>  <Energy>  (958) 
168.34504825579563

>  <compound_id>  (958) 
3823

>  <target_id>  (958) 
1

>  <reference_id>  (958) 
131

>  <inspiration_ids>  (958) 
[131, 194]

>  <energy_score>  (958) 
-104.50604883756739

>  <distance_score>  (958) 
1.950062301883538

>  <path>  (958) 
/opt/xchem-fragalysis-2/maxwin/BulkDock/SCRATCH/505734/C3823-P131/C3823-P131.minimised.mol

>  <scratch_subdir>  (958) 
/opt/xchem-fragalysis-2/maxwin/BulkDock/SCRATCH/505734/C3823-P131

>  <fragmenstein_runtime>  (958) 
36.075687885284424

>  <fragmenstein_outcome>  (958) 
too moved

>  <fragmenstein_mode>  (958) 
expansion

>  <fragmenstein_error>  (958) 


$$$$
C3823-P194
     RDKit          3D

 73 78  0  0  0  0  0  0  0  0999 V2000
   -2.6412    1.7152   26.7982 C   0  0  0  0  0  0  0  0  0  0  0  0
   -2.0851    0.7242   27.6665 O   0  0  0  0  0  0  0  0  0  0  0  0
   -1.0592    1.1667   28.4565 C   0  0  0  0  0  0  0  0  0  0  0  0
   -0.1944    2.1959   28.0627 C   0  0  0  0  0  0  0  0  0  0  0  0
    0.7613    2.7054   28.9496 C   0  0  0  0  0  0  0  0  0  0  0  0
    1.5483    3.8884   28.5786 C   0  0  0  0  0  0  0  0  0  0  0  0
    2.6482    3.8789   27.6126 C   0  0  0  0  0  0  0  0  0  0  0  0
    3.3268    5.0010   27.2981 C   0  0  0  0  0  0  0  0  0  0  0  0
    2.9702    6.2326   27.9124 C   0  0  0  0  0  0  0  0  0  0  0  0
    3.4468    7.4540   27.8139 N   0  0  0  0  0  0  0  0  0  0  0  0
    2.7005    8.2638   28.6466 N   0  0  0  0  0  0  0  0  0  0  0  0
    1.7809    7.5265   29.2305 C   0  0  0  0  0  0  0  0  0  0  0  0
    0.8350    7.9308   30.1081 N   0  0  0  0  0  0  0  0  0  0  0  0
    1.9140    6.2170   28.8096 N   0  0  0  0  0  0  0  0  0  0  0  0
    1.2084    5.0651   29.1449 C   0  0  0  0  0  0  0  0  0  0  0  0
    0.8927    2.1443   30.2211 C   0  0  0  0  0  0  0  0  0  0  0  0
    0.0575    1.1001   30.6061 C   0  0  0  0  0  0  0  0  0  0  0  0
   -0.9007    0.5939   29.7255 C   0  0  0  0  0  0  0  0  0  0  0  0
   -1.7450   -0.3455   30.2574 O   0  0  0  0  0  0  0  0  0  0  0  0
   -1.6140   -1.6251   29.6401 C   0  0  0  0  0  0  0  0  0  0  0  0
   -1.8946   -2.6539   30.6522 N   0  0  0  0  0  0  0  0  0  0  0  0
   -0.7116   -3.0070   31.4391 C   0  0  0  0  0  0  0  0  0  0  0  0
   -0.5183   -2.2202   32.7563 C   0  0  0  0  0  0  0  0  0  0  0  0
    0.8466   -2.3419   33.3111 N   0  0  0  0  0  0  0  0  0  0  0  0
    1.7590   -1.3912   32.6538 C   0  0  0  0  0  0  0  0  0  0  0  0
    3.1775   -1.7926   32.8194 C   0  0  0  0  0  0  0  0  0  0  0  0
    4.0114   -0.9792   33.5355 O   0  0  0  0  0  0  0  0  0  0  0  0
    5.2257   -1.5922   33.4359 C   0  0  0  0  0  0  0  0  0  0  0  0
    5.2362   -2.7133   32.7495 N   0  0  0  0  0  0  0  0  0  0  0  0
    3.9280   -2.8490   32.3362 C   0  0  0  0  0  0  0  0  0  0  0  0
    3.3872   -3.9622   31.5538 C   0  0  0  0  0  0  0  0  0  0  0  0
    3.7302   -4.1336   30.4206 O   0  0  0  0  0  0  0  0  0  0  0  0
    2.3993   -4.6369   32.3469 N   0  0  0  0  0  0  0  0  0  0  0  0
    1.5001   -5.6067   32.0209 C   0  0  0  0  0  0  0  0  0  0  0  0
    1.1682   -5.8705   30.7482 C   0  0  0  0  0  0  0  0  0  0  0  0
    0.1135   -6.6790   30.4259 N   0  0  0  0  0  0  0  0  0  0  0  0
   -0.7087   -7.2935   31.3338 C   0  0  0  0  0  0  0  0  0  0  0  0
   -1.6511   -7.9906   30.9752 O   0  0  0  0  0  0  0  0  0  0  0  0
   -0.3875   -7.0456   32.7604 C   0  0  0  0  0  0  0  0  0  0  0  0
   -1.1763   -7.6298   33.7464 C   0  0  0  0  0  0  0  0  0  0  0  0
   -0.8556   -7.4622   35.0901 C   0  0  0  0  0  0  0  0  0  0  0  0
    0.2472   -6.7030   35.4544 C   0  0  0  0  0  0  0  0  0  0  0  0
    1.0277   -6.0989   34.4682 C   0  0  0  0  0  0  0  0  0  0  0  0
    0.7154   -6.2475   33.1034 C   0  0  0  0  0  0  0  0  0  0  0  0
   -2.0201    1.8360   25.9065 H   0  0  0  0  0  0  0  0  0  0  0  0
   -3.6255    1.3790   26.4684 H   0  0  0  0  0  0  0  0  0  0  0  0
   -2.7801    2.6755   27.3066 H   0  0  0  0  0  0  0  0  0  0  0  0
   -0.2811    2.6504   27.0798 H   0  0  0  0  0  0  0  0  0  0  0  0
    2.9090    2.9318   27.1468 H   0  0  0  0  0  0  0  0  0  0  0  0
    4.1403    4.9928   26.5816 H   0  0  0  0  0  0  0  0  0  0  0  0
    0.6877    8.9362   30.1406 H   0  0  0  0  0  0  0  0  0  0  0  0
   -0.0367    7.4120   30.1820 H   0  0  0  0  0  0  0  0  0  0  0  0
    0.4013    5.1761   29.8593 H   0  0  0  0  0  0  0  0  0  0  0  0
    1.6192    2.5420   30.9263 H   0  0  0  0  0  0  0  0  0  0  0  0
    0.1214    0.7141   31.6153 H   0  0  0  0  0  0  0  0  0  0  0  0
   -0.6350   -1.7784   29.1664 H   0  0  0  0  0  0  0  0  0  0  0  0
   -2.3724   -1.7036   28.8551 H   0  0  0  0  0  0  0  0  0  0  0  0
   -2.6212   -2.2697   31.2510 H   0  0  0  0  0  0  0  0  0  0  0  0
    0.1870   -2.9752   30.8137 H   0  0  0  0  0  0  0  0  0  0  0  0
   -0.8489   -4.0548   31.7194 H   0  0  0  0  0  0  0  0  0  0  0  0
   -0.7853   -1.1649   32.6416 H   0  0  0  0  0  0  0  0  0  0  0  0
   -1.2202   -2.6275   33.4949 H   0  0  0  0  0  0  0  0  0  0  0  0
    0.8105   -2.0974   34.3027 H   0  0  0  0  0  0  0  0  0  0  0  0
    1.5642   -1.3353   31.5769 H   0  0  0  0  0  0  0  0  0  0  0  0
    1.6019   -0.3892   33.0689 H   0  0  0  0  0  0  0  0  0  0  0  0
    6.0551   -1.1044   33.9296 H   0  0  0  0  0  0  0  0  0  0  0  0
    2.4357   -4.2791   33.2940 H   0  0  0  0  0  0  0  0  0  0  0  0
    1.6562   -5.3991   29.8998 H   0  0  0  0  0  0  0  0  0  0  0  0
   -0.1690   -6.7573   29.4594 H   0  0  0  0  0  0  0  0  0  0  0  0
   -2.0154   -8.2598   33.4650 H   0  0  0  0  0  0  0  0  0  0  0  0
   -1.4443   -7.9682   35.8466 H   0  0  0  0  0  0  0  0  0  0  0  0
    0.5046   -6.5894   36.5053 H   0  0  0  0  0  0  0  0  0  0  0  0
    1.8871   -5.5239   34.7994 H   0  0  0  0  0  0  0  0  0  0  0  0
  1  2  1  0
  2  3  1  0
  3  4  2  0
  4  5  1  0
  5  6  1  0
  6  7  1  0
  7  8  2  0
  8  9  1  0
  9 10  2  0
 10 11  1  0
 11 12  2  0
 12 13  1  0
 12 14  1  0
 14 15  1  0
  5 16  2  0
 16 17  1  0
 17 18  2  0
 18 19  1  0
 19 20  1  0
 20 21  1  0
 21 22  1  0
 22 23  1  0
 23 24  1  0
 24 25  1  0
 25 26  1  0
 26 27  1  0
 27 28  1  0
 28 29  2  0
 29 30  1  0
 30 31  1  0
 31 32  2  0
 31 33  1  0
 33 34  1  0
 34 35  2  0
 35 36  1  0
 36 37  1  0
 37 38  2  0
 37 39  1  0
 39 40  2  0
 40 41  1  0
 41 42  2  0
 42 43  1  0
 43 44  2  0
 18  3  1  0
 30 26  2  0
 44 34  1  0
 15  6  2  0
 44 39  1  0
 14  9  1  0
  1 45  1  0
  1 46  1  0
  1 47  1  0
  4 48  1  0
  7 49  1  0
  8 50  1  0
 13 51  1  0
 13 52  1  0
 15 53  1  0
 16 54  1  0
 17 55  1  0
 20 56  1  0
 20 57  1  0
 21 58  1  0
 22 59  1  0
 22 60  1  0
 23 61  1  0
 23 62  1  0
 24 63  1  0
 25 64  1  0
 25 65  1  0
 28 66  1  0
 33 67  1  0
 35 68  1  0
 36 69  1  0
 40 70  1  0
 41 71  1  0
 42 72  1  0
 43 73  1  0
M  END
>  <Energy>  (959) 
130.92458921661924

>  <compound_id>  (959) 
3823

>  <target_id>  (959) 
1

>  <reference_id>  (959) 
194

>  <inspiration_ids>  (959) 
[131, 194]

>  <energy_score>  (959) 
-125.54573771427744

>  <distance_score>  (959) 
2.0666982749746876

>  <path>  (959) 
/opt/xchem-fragalysis-2/maxwin/BulkDock/SCRATCH/505734/C3823-P194/C3823-P194.minimised.mol

>  <scratch_subdir>  (959) 
/opt/xchem-fragalysis-2/maxwin/BulkDock/SCRATCH/505734/C3823-P194

>  <fragmenstein_runtime>  (959) 
48.68721532821655

>  <fragmenstein_outcome>  (959) 
too moved

>  <fragmenstein_mode>  (959) 
expansion

>  <fragmenstein_error>  (959) 


$$$$
C108-P131
     RDKit          2D

  0  0  0  0  0  0  0  0  0  0999 V2000
M  END
>  <compound_id>  (960) 
108

>  <target_id>  (960) 
1

>  <reference_id>  (960) 
131

>  <inspiration_ids>  (960) 
[131, 195]

>  <energy_score>  (960) 
nan

>  <distance_score>  (960) 
nan

>  <path>  (960) 
/opt/xchem-fragalysis-2/maxwin/BulkDock/SCRATCH/505734/C108-P131/C108-P131.minimised.mol

>  <scratch_subdir>  (960) 
/opt/xchem-fragalysis-2/maxwin/BulkDock/SCRATCH/505734/C108-P131

>  <fragmenstein_runtime>  (960) 
0.4241657257080078

>  <fragmenstein_outcome>  (960) 
crashed

>  <fragmenstein_mode>  (960) 
expansion

>  <fragmenstein_error>  (960) 
PoisonError: None has poison atoms [7, 6, 6, 7]

$$$$
C108-P131
     RDKit          3D

 34 36  0  0  0  0  0  0  0  0999 V2000
    0.9939    3.4346   32.3853 C   0  0  0  0  0  0  0  0  0  0  0  0
    0.4420    2.5016   31.4681 O   0  0  0  0  0  0  0  0  0  0  0  0
    0.1329    1.2498   31.9331 C   0  0  0  0  0  0  0  0  0  0  0  0
    0.5669    0.7362   33.1666 C   0  0  0  0  0  0  0  0  0  0  0  0
    0.3284   -0.6012   33.5082 C   0  0  0  0  0  0  0  0  0  0  0  0
   -0.4028   -1.4020   32.6428 C   0  0  0  0  0  0  0  0  0  0  0  0
   -0.2732   -2.8679   32.6558 C   0  0  0  0  0  0  0  0  0  0  0  0
   -0.5604   -3.9044   33.6516 C   0  0  0  0  0  0  0  0  0  0  0  0
   -0.5491   -5.2279   33.3386 C   0  0  0  0  0  0  0  0  0  0  0  0
   -0.3059   -5.6163   31.9927 C   0  0  0  0  0  0  0  0  0  0  0  0
   -0.3396   -6.7373   31.3021 N   0  0  0  0  0  0  0  0  0  0  0  0
   -0.1666   -6.3872   29.9584 N   0  0  0  0  0  0  0  0  0  0  0  0
   -0.1141   -5.0763   29.8690 C   0  0  0  0  0  0  0  0  0  0  0  0
   -0.3157   -4.2409   28.8109 N   0  0  0  0  0  0  0  0  0  0  0  0
    0.0031   -4.5898   31.1278 N   0  0  0  0  0  0  0  0  0  0  0  0
    0.1544   -3.2838   31.4596 C   0  0  0  0  0  0  0  0  0  0  0  0
   -1.0026   -0.8225   31.4936 C   0  0  0  0  0  0  0  0  0  0  0  0
   -0.6312    0.4437   31.0685 C   0  0  0  0  0  0  0  0  0  0  0  0
   -0.9656    0.9419   29.8329 O   0  0  0  0  0  0  0  0  0  0  0  0
   -1.1191    0.0068   28.7619 C   0  0  0  0  0  0  0  0  0  0  0  0
    2.0100    3.1457   32.6719 H   0  0  0  0  0  0  0  0  0  0  0  0
    1.0522    4.4046   31.8823 H   0  0  0  0  0  0  0  0  0  0  0  0
    0.3539    3.5537   33.2660 H   0  0  0  0  0  0  0  0  0  0  0  0
    1.1747    1.3299   33.8423 H   0  0  0  0  0  0  0  0  0  0  0  0
    0.7999   -1.0203   34.3934 H   0  0  0  0  0  0  0  0  0  0  0  0
   -0.8141   -3.5843   34.6587 H   0  0  0  0  0  0  0  0  0  0  0  0
   -0.7947   -5.9856   34.0756 H   0  0  0  0  0  0  0  0  0  0  0  0
   -0.6927   -4.7396   27.9994 H   0  0  0  0  0  0  0  0  0  0  0  0
   -0.8933   -3.4137   28.9436 H   0  0  0  0  0  0  0  0  0  0  0  0
    0.4679   -2.6336   30.6487 H   0  0  0  0  0  0  0  0  0  0  0  0
   -1.6345   -1.4364   30.8575 H   0  0  0  0  0  0  0  0  0  0  0  0
   -2.0554   -0.5489   28.8599 H   0  0  0  0  0  0  0  0  0  0  0  0
   -0.2649   -0.6766   28.7088 H   0  0  0  0  0  0  0  0  0  0  0  0
   -1.1597    0.5732   27.8268 H   0  0  0  0  0  0  0  0  0  0  0  0
  1  2  1  0
  2  3  1  0
  3  4  2  0
  4  5  1  0
  5  6  2  0
  6  7  1  0
  7  8  1  0
  8  9  2  0
  9 10  1  0
 10 11  2  0
 11 12  1  0
 12 13  2  0
 13 14  1  0
 13 15  1  0
 15 16  1  0
  6 17  1  0
 17 18  2  0
 18 19  1  0
 19 20  1  0
 18  3  1  0
 16  7  2  0
 15 10  1  0
  1 21  1  0
  1 22  1  0
  1 23  1  0
  4 24  1  0
  5 25  1  0
  8 26  1  0
  9 27  1  0
 14 28  1  0
 14 29  1  0
 16 30  1  0
 17 31  1  0
 20 32  1  0
 20 33  1  0
 20 34  1  0
M  END
>  <Energy>  (961) 
95.60298770403341

>  <compound_id>  (961) 
108

>  <target_id>  (961) 
1

>  <reference_id>  (961) 
131

>  <inspiration_ids>  (961) 
[131, 196]

>  <energy_score>  (961) 
-9.120639134469684

>  <distance_score>  (961) 
2.0944183428971797

>  <path>  (961) 
/opt/xchem-fragalysis-2/maxwin/BulkDock/SCRATCH/505734/C108-P131/C108-P131.minimised.mol

>  <scratch_subdir>  (961) 
/opt/xchem-fragalysis-2/maxwin/BulkDock/SCRATCH/505734/C108-P131

>  <fragmenstein_runtime>  (961) 
173.66710543632507

>  <fragmenstein_outcome>  (961) 
too moved

>  <fragmenstein_mode>  (961) 
expansion

>  <fragmenstein_error>  (961) 


$$$$
C108-P196
     RDKit          3D

 34 36  0  0  0  0  0  0  0  0999 V2000
    0.9924    3.3280   32.5356 C   0  0  0  0  0  0  0  0  0  0  0  0
    0.3503    2.4305   31.6428 O   0  0  0  0  0  0  0  0  0  0  0  0
    0.1064    1.1517   32.0721 C   0  0  0  0  0  0  0  0  0  0  0  0
    0.5289    0.6366   33.3092 C   0  0  0  0  0  0  0  0  0  0  0  0
    0.3460   -0.7164   33.6217 C   0  0  0  0  0  0  0  0  0  0  0  0
   -0.3161   -1.5367   32.7208 C   0  0  0  0  0  0  0  0  0  0  0  0
   -0.1502   -3.0002   32.7341 C   0  0  0  0  0  0  0  0  0  0  0  0
   -0.5301   -4.0449   33.6892 C   0  0  0  0  0  0  0  0  0  0  0  0
   -0.5722   -5.3576   33.3387 C   0  0  0  0  0  0  0  0  0  0  0  0
   -0.3203   -5.7143   31.9854 C   0  0  0  0  0  0  0  0  0  0  0  0
   -0.4504   -6.7986   31.2491 N   0  0  0  0  0  0  0  0  0  0  0  0
   -0.3302   -6.3915   29.9160 N   0  0  0  0  0  0  0  0  0  0  0  0
   -0.1670   -5.0864   29.8880 C   0  0  0  0  0  0  0  0  0  0  0  0
   -0.4544   -4.1657   28.9247 N   0  0  0  0  0  0  0  0  0  0  0  0
    0.0819   -4.6826   31.1623 N   0  0  0  0  0  0  0  0  0  0  0  0
    0.3253   -3.4020   31.5496 C   0  0  0  0  0  0  0  0  0  0  0  0
   -0.9037   -0.9679   31.5588 C   0  0  0  0  0  0  0  0  0  0  0  0
   -0.5935    0.3264   31.1709 C   0  0  0  0  0  0  0  0  0  0  0  0
   -0.9140    0.8369   29.9372 O   0  0  0  0  0  0  0  0  0  0  0  0
   -1.0885   -0.0818   28.8584 C   0  0  0  0  0  0  0  0  0  0  0  0
    2.0102    2.9952   32.7634 H   0  0  0  0  0  0  0  0  0  0  0  0
    1.0627    4.3009   32.0398 H   0  0  0  0  0  0  0  0  0  0  0  0
    0.4059    3.4622   33.4504 H   0  0  0  0  0  0  0  0  0  0  0  0
    1.0768    1.2484   34.0188 H   0  0  0  0  0  0  0  0  0  0  0  0
    0.8011   -1.1265   34.5194 H   0  0  0  0  0  0  0  0  0  0  0  0
   -0.8073   -3.7378   34.6940 H   0  0  0  0  0  0  0  0  0  0  0  0
   -0.8868   -6.1223   34.0412 H   0  0  0  0  0  0  0  0  0  0  0  0
    0.2702   -3.5040   28.6681 H   0  0  0  0  0  0  0  0  0  0  0  0
   -0.8374   -4.5781   28.0658 H   0  0  0  0  0  0  0  0  0  0  0  0
    0.6672   -2.7344   30.7664 H   0  0  0  0  0  0  0  0  0  0  0  0
   -1.4789   -1.6067   30.8921 H   0  0  0  0  0  0  0  0  0  0  0  0
   -2.0199   -0.6420   28.9689 H   0  0  0  0  0  0  0  0  0  0  0  0
   -0.2322   -0.7592   28.7749 H   0  0  0  0  0  0  0  0  0  0  0  0
   -1.1543    0.4979   27.9350 H   0  0  0  0  0  0  0  0  0  0  0  0
  1  2  1  0
  2  3  1  0
  3  4  2  0
  4  5  1  0
  5  6  2  0
  6  7  1  0
  7  8  1  0
  8  9  2  0
  9 10  1  0
 10 11  2  0
 11 12  1  0
 12 13  2  0
 13 14  1  0
 13 15  1  0
 15 16  1  0
  6 17  1  0
 17 18  2  0
 18 19  1  0
 19 20  1  0
 18  3  1  0
 16  7  2  0
 15 10  1  0
  1 21  1  0
  1 22  1  0
  1 23  1  0
  4 24  1  0
  5 25  1  0
  8 26  1  0
  9 27  1  0
 14 28  1  0
 14 29  1  0
 16 30  1  0
 17 31  1  0
 20 32  1  0
 20 33  1  0
 20 34  1  0
M  END
>  <Energy>  (962) 
100.33411559706308

>  <compound_id>  (962) 
108

>  <target_id>  (962) 
1

>  <reference_id>  (962) 
196

>  <inspiration_ids>  (962) 
[131, 196]

>  <energy_score>  (962) 
-4.389511241438299

>  <distance_score>  (962) 
2.0705952022027527

>  <path>  (962) 
/opt/xchem-fragalysis-2/maxwin/BulkDock/SCRATCH/505734/C108-P196/C108-P196.minimised.mol

>  <scratch_subdir>  (962) 
/opt/xchem-fragalysis-2/maxwin/BulkDock/SCRATCH/505734/C108-P196

>  <fragmenstein_runtime>  (962) 
184.20451641082764

>  <fragmenstein_outcome>  (962) 
too moved

>  <fragmenstein_mode>  (962) 
expansion

>  <fragmenstein_error>  (962) 


$$$$
C3824-P131
     RDKit          3D

 47 50  0  0  0  0  0  0  0  0999 V2000
   -3.0832   -2.6789   24.5398 C   0  0  0  0  0  0  0  0  0  0  0  0
   -3.5111   -1.9504   25.7186 O   0  0  0  0  0  0  0  0  0  0  0  0
   -2.8118   -1.6823   26.8895 C   0  0  0  0  0  0  0  0  0  0  0  0
   -1.9900   -0.5638   26.9235 C   0  0  0  0  0  0  0  0  0  0  0  0
   -1.1987   -0.3026   28.0167 C   0  0  0  0  0  0  0  0  0  0  0  0
   -1.3513   -1.0352   29.1985 C   0  0  0  0  0  0  0  0  0  0  0  0
   -0.4293   -0.6105   30.2817 C   0  0  0  0  0  0  0  0  0  0  0  0
   -0.2967    0.8319   30.5496 C   0  0  0  0  0  0  0  0  0  0  0  0
    0.5357    1.3547   31.4583 C   0  0  0  0  0  0  0  0  0  0  0  0
    1.4104    0.4894   32.1376 C   0  0  0  0  0  0  0  0  0  0  0  0
    2.3758    0.7331   32.9893 N   0  0  0  0  0  0  0  0  0  0  0  0
    3.0812   -0.4290   33.1443 N   0  0  0  0  0  0  0  0  0  0  0  0
    2.5408   -1.3500   32.3780 C   0  0  0  0  0  0  0  0  0  0  0  0
    3.1193   -2.5222   32.0412 N   0  0  0  0  0  0  0  0  0  0  0  0
    1.3521   -0.8666   31.8383 N   0  0  0  0  0  0  0  0  0  0  0  0
    0.3743   -1.4447   30.9883 C   0  0  0  0  0  0  0  0  0  0  0  0
    0.2113   -2.8010   30.9385 N   0  0  0  0  0  0  0  0  0  0  0  0
    0.3638   -3.8418   32.0043 C   0  0  0  0  0  0  0  0  0  0  0  0
    0.7350   -3.7397   33.1097 O   0  0  0  0  0  0  0  0  0  0  0  0
   -0.1564   -5.0264   31.2751 N   0  0  0  0  0  0  0  0  0  0  0  0
   -0.4274   -6.2815   31.7089 C   0  0  0  0  0  0  0  0  0  0  0  0
   -0.3683   -6.7334   33.0382 C   0  0  0  0  0  0  0  0  0  0  0  0
   -0.7563   -7.9980   33.1353 N   0  0  0  0  0  0  0  0  0  0  0  0
   -1.1255   -8.3283   31.8950 N   0  0  0  0  0  0  0  0  0  0  0  0
   -0.8628   -7.3522   30.9759 C   0  0  0  0  0  0  0  0  0  0  0  0
   -2.3929   -1.9819   29.2831 C   0  0  0  0  0  0  0  0  0  0  0  0
   -3.2087   -2.2200   28.1435 C   0  0  0  0  0  0  0  0  0  0  0  0
   -4.4937   -2.9679   28.0780 O   0  0  0  0  0  0  0  0  0  0  0  0
   -5.5566   -3.5809   28.9466 C   0  0  0  0  0  0  0  0  0  0  0  0
   -3.8998   -2.8801   23.8842 H   0  0  0  0  0  0  0  0  0  0  0  0
   -2.8577   -3.7271   24.6895 H   0  0  0  0  0  0  0  0  0  0  0  0
   -2.4201   -2.2367   23.8088 H   0  0  0  0  0  0  0  0  0  0  0  0
   -1.9279    0.0717   26.0522 H   0  0  0  0  0  0  0  0  0  0  0  0
   -0.4642    0.4929   27.9162 H   0  0  0  0  0  0  0  0  0  0  0  0
   -0.9036    1.4967   29.9453 H   0  0  0  0  0  0  0  0  0  0  0  0
    0.6129    2.4241   31.6225 H   0  0  0  0  0  0  0  0  0  0  0  0
    2.8761   -2.9844   31.1766 H   0  0  0  0  0  0  0  0  0  0  0  0
    4.0836   -2.6412   32.3333 H   0  0  0  0  0  0  0  0  0  0  0  0
   -0.2124   -3.2147   30.1278 H   0  0  0  0  0  0  0  0  0  0  0  0
   -0.3069   -4.7844   30.3147 H   0  0  0  0  0  0  0  0  0  0  0  0
   -0.0793   -6.1958   33.9338 H   0  0  0  0  0  0  0  0  0  0  0  0
   -1.5295   -9.2501   31.7635 H   0  0  0  0  0  0  0  0  0  0  0  0
   -1.0575   -7.4947   29.9265 H   0  0  0  0  0  0  0  0  0  0  0  0
   -2.6170   -2.4502   30.2340 H   0  0  0  0  0  0  0  0  0  0  0  0
   -5.4351   -3.4804   30.0353 H   0  0  0  0  0  0  0  0  0  0  0  0
   -5.7341   -4.6343   28.7919 H   0  0  0  0  0  0  0  0  0  0  0  0
   -6.5320   -3.2019   28.6127 H   0  0  0  0  0  0  0  0  0  0  0  0
  1  2  1  0
  2  3  1  0
  3  4  2  0
  4  5  1  0
  5  6  2  0
  6  7  1  0
  7  8  1  0
  8  9  2  0
  9 10  1  0
 10 11  2  0
 11 12  1  0
 12 13  2  0
 13 14  1  0
 13 15  1  0
 15 16  1  0
 16 17  1  0
 17 18  1  0
 18 19  2  0
 18 20  1  0
 20 21  1  0
 21 22  1  0
 22 23  2  0
 23 24  1  0
 24 25  1  0
  6 26  1  0
 26 27  2  0
 27 28  1  0
 28 29  1  0
 27  3  1  0
 16  7  2  0
 25 21  2  0
 15 10  1  0
  1 30  1  0
  1 31  1  0
  1 32  1  0
  4 33  1  0
  5 34  1  0
  8 35  1  0
  9 36  1  0
 14 37  1  0
 14 38  1  0
 17 39  1  0
 20 40  1  0
 22 41  1  0
 24 42  1  0
 25 43  1  0
 26 44  1  0
 29 45  1  0
 29 46  1  0
 29 47  1  0
M  END
>  <Energy>  (963) 
147.79299166521022

>  <compound_id>  (963) 
3824

>  <target_id>  (963) 
1

>  <reference_id>  (963) 
131

>  <inspiration_ids>  (963) 
[131, 197]

>  <energy_score>  (963) 
28.118423379637875

>  <distance_score>  (963) 
3.049279202121889

>  <path>  (963) 
/opt/xchem-fragalysis-2/maxwin/BulkDock/SCRATCH/505734/C3824-P131/C3824-P131.minimised.mol

>  <scratch_subdir>  (963) 
/opt/xchem-fragalysis-2/maxwin/BulkDock/SCRATCH/505734/C3824-P131

>  <fragmenstein_runtime>  (963) 
35.460184812545776

>  <fragmenstein_outcome>  (963) 
too moved

>  <fragmenstein_mode>  (963) 
expansion

>  <fragmenstein_error>  (963) 


$$$$
C3824-P197
     RDKit          3D

 47 50  0  0  0  0  0  0  0  0999 V2000
   -8.6487   -4.9382   27.2260 C   0  0  0  0  0  0  0  0  0  0  0  0
   -7.4774   -4.9688   28.0480 O   0  0  0  0  0  0  0  0  0  0  0  0
   -6.8236   -4.1194   28.8774 C   0  0  0  0  0  0  0  0  0  0  0  0
   -5.6416   -4.0840   29.4773 C   0  0  0  0  0  0  0  0  0  0  0  0
   -5.0597   -3.5461   30.9311 C   0  0  0  0  0  0  0  0  0  0  0  0
   -5.6841   -2.9053   31.8994 C   0  0  0  0  0  0  0  0  0  0  0  0
   -5.1209   -1.9519   32.9455 C   0  0  0  0  0  0  0  0  0  0  0  0
   -6.0311   -1.0227   33.6348 C   0  0  0  0  0  0  0  0  0  0  0  0
   -5.6172    0.1284   34.1868 C   0  0  0  0  0  0  0  0  0  0  0  0
   -4.2549    0.4917   34.1002 C   0  0  0  0  0  0  0  0  0  0  0  0
   -3.6315    1.6011   34.4164 N   0  0  0  0  0  0  0  0  0  0  0  0
   -2.2978    1.4026   34.1964 N   0  0  0  0  0  0  0  0  0  0  0  0
   -2.1261    0.1974   33.7029 C   0  0  0  0  0  0  0  0  0  0  0  0
   -0.9356   -0.3017   33.3065 N   0  0  0  0  0  0  0  0  0  0  0  0
   -3.3607   -0.4405   33.5923 N   0  0  0  0  0  0  0  0  0  0  0  0
   -3.7830   -1.6934   33.1034 C   0  0  0  0  0  0  0  0  0  0  0  0
   -2.8802   -2.6999   32.9965 N   0  0  0  0  0  0  0  0  0  0  0  0
   -1.7354   -2.8798   32.0772 C   0  0  0  0  0  0  0  0  0  0  0  0
   -1.2896   -2.1525   31.2704 O   0  0  0  0  0  0  0  0  0  0  0  0
   -1.3778   -4.2907   32.4056 N   0  0  0  0  0  0  0  0  0  0  0  0
   -0.5103   -5.1459   31.8080 C   0  0  0  0  0  0  0  0  0  0  0  0
   -0.2735   -6.4998   32.1046 C   0  0  0  0  0  0  0  0  0  0  0  0
    0.4944   -7.0774   31.1783 N   0  0  0  0  0  0  0  0  0  0  0  0
    0.7530   -6.0813   30.3123 N   0  0  0  0  0  0  0  0  0  0  0  0
    0.2006   -4.8933   30.6671 C   0  0  0  0  0  0  0  0  0  0  0  0
   -6.6829   -2.5752   31.0571 C   0  0  0  0  0  0  0  0  0  0  0  0
   -7.3115   -3.1732   29.5316 C   0  0  0  0  0  0  0  0  0  0  0  0
   -8.2422   -2.7003   28.5747 O   0  0  0  0  0  0  0  0  0  0  0  0
   -8.0382   -1.5816   27.7340 C   0  0  0  0  0  0  0  0  0  0  0  0
   -8.5723   -4.3280   26.3378 H   0  0  0  0  0  0  0  0  0  0  0  0
   -8.6072   -5.8260   26.6737 H   0  0  0  0  0  0  0  0  0  0  0  0
   -9.6682   -4.9617   27.6330 H   0  0  0  0  0  0  0  0  0  0  0  0
   -4.9446   -3.7915   28.6694 H   0  0  0  0  0  0  0  0  0  0  0  0
   -3.9900   -3.3053   30.9474 H   0  0  0  0  0  0  0  0  0  0  0  0
   -7.0821   -1.2950   33.6944 H   0  0  0  0  0  0  0  0  0  0  0  0
   -6.3100    0.8037   34.6778 H   0  0  0  0  0  0  0  0  0  0  0  0
   -0.9168   -0.7606   32.3904 H   0  0  0  0  0  0  0  0  0  0  0  0
   -0.1816    0.3810   33.3361 H   0  0  0  0  0  0  0  0  0  0  0  0
   -3.0412   -3.5579   33.4998 H   0  0  0  0  0  0  0  0  0  0  0  0
   -1.9044   -4.5899   33.2131 H   0  0  0  0  0  0  0  0  0  0  0  0
   -0.6622   -7.1016   32.9167 H   0  0  0  0  0  0  0  0  0  0  0  0
    1.2992   -6.2802   29.4820 H   0  0  0  0  0  0  0  0  0  0  0  0
    0.2983   -4.0136   30.0449 H   0  0  0  0  0  0  0  0  0  0  0  0
   -6.9840   -1.5377   31.3266 H   0  0  0  0  0  0  0  0  0  0  0  0
   -7.2208   -1.0378   28.0761 H   0  0  0  0  0  0  0  0  0  0  0  0
   -8.9136   -0.9317   27.7682 H   0  0  0  0  0  0  0  0  0  0  0  0
   -7.8265   -1.8665   26.7067 H   0  0  0  0  0  0  0  0  0  0  0  0
  1  2  1  0
  2  3  1  0
  3  4  2  0
  4  5  1  0
  5  6  2  0
  6  7  1  0
  7  8  1  0
  8  9  2  0
  9 10  1  0
 10 11  2  0
 11 12  1  0
 12 13  2  0
 13 14  1  0
 13 15  1  0
 15 16  1  0
 16 17  1  0
 17 18  1  0
 18 19  2  0
 18 20  1  0
 20 21  1  0
 21 22  1  0
 22 23  2  0
 23 24  1  0
 24 25  1  0
  6 26  1  0
 26 27  2  0
 27 28  1  0
 28 29  1  0
 27  3  1  0
 16  7  2  0
 25 21  2  0
 15 10  1  0
  1 30  1  0
  1 31  1  0
  1 32  1  0
  4 33  1  0
  5 34  1  0
  8 35  1  0
  9 36  1  0
 14 37  1  0
 14 38  1  0
 17 39  1  0
 20 40  1  0
 22 41  1  0
 24 42  1  0
 25 43  1  0
 26 44  1  0
 29 45  1  0
 29 46  1  0
 29 47  1  0
M  END
>  <Energy>  (964) 
296.34997203463234

>  <compound_id>  (964) 
3824

>  <target_id>  (964) 
1

>  <reference_id>  (964) 
197

>  <inspiration_ids>  (964) 
[131, 197]

>  <energy_score>  (964) 
176.67540374906514

>  <distance_score>  (964) 
3.88692829344048

>  <path>  (964) 
/opt/xchem-fragalysis-2/maxwin/BulkDock/SCRATCH/505734/C3824-P197/C3824-P197.minimised.mol

>  <scratch_subdir>  (964) 
/opt/xchem-fragalysis-2/maxwin/BulkDock/SCRATCH/505734/C3824-P197

>  <fragmenstein_runtime>  (964) 
28.800176858901978

>  <fragmenstein_outcome>  (964) 
too moved

>  <fragmenstein_mode>  (964) 
expansion

>  <fragmenstein_error>  (964) 


$$$$
C3824-P131
     RDKit          3D

 47 50  0  0  0  0  0  0  0  0999 V2000
    1.0561    4.4526   29.6663 C   0  0  0  0  0  0  0  0  0  0  0  0
    0.3834    3.5155   28.8378 O   0  0  0  0  0  0  0  0  0  0  0  0
    0.2069    2.2494   29.3205 C   0  0  0  0  0  0  0  0  0  0  0  0
    0.5899    1.8123   30.5928 C   0  0  0  0  0  0  0  0  0  0  0  0
    0.3798    0.4838   30.9893 C   0  0  0  0  0  0  0  0  0  0  0  0
   -0.1907   -0.4422   30.1095 C   0  0  0  0  0  0  0  0  0  0  0  0
   -0.3342   -1.8844   30.4970 C   0  0  0  0  0  0  0  0  0  0  0  0
   -1.0615   -2.7469   29.5454 C   0  0  0  0  0  0  0  0  0  0  0  0
   -0.3814   -3.5775   28.7353 C   0  0  0  0  0  0  0  0  0  0  0  0
    1.0238   -3.6957   28.8650 C   0  0  0  0  0  0  0  0  0  0  0  0
    1.9641   -4.2799   28.1544 N   0  0  0  0  0  0  0  0  0  0  0  0
    3.1477   -4.1577   28.8522 N   0  0  0  0  0  0  0  0  0  0  0  0
    2.9046   -3.5034   29.9691 C   0  0  0  0  0  0  0  0  0  0  0  0
    3.8008   -3.1416   30.9150 N   0  0  0  0  0  0  0  0  0  0  0  0
    1.5648   -3.1722   30.0221 N   0  0  0  0  0  0  0  0  0  0  0  0
    0.7857   -2.4929   30.9939 C   0  0  0  0  0  0  0  0  0  0  0  0
    0.5609   -3.2317   32.1449 N   0  0  0  0  0  0  0  0  0  0  0  0
    0.7924   -4.6984   32.4352 C   0  0  0  0  0  0  0  0  0  0  0  0
    1.2904   -5.5306   31.7731 O   0  0  0  0  0  0  0  0  0  0  0  0
    0.1197   -4.7997   33.7579 N   0  0  0  0  0  0  0  0  0  0  0  0
   -0.1835   -5.8866   34.5196 C   0  0  0  0  0  0  0  0  0  0  0  0
   -0.5712   -5.9217   35.8648 C   0  0  0  0  0  0  0  0  0  0  0  0
   -0.7389   -7.1670   36.3013 N   0  0  0  0  0  0  0  0  0  0  0  0
   -0.6525   -7.9175   35.1889 N   0  0  0  0  0  0  0  0  0  0  0  0
   -0.2136   -7.1965   34.1089 C   0  0  0  0  0  0  0  0  0  0  0  0
   -0.5882    0.0111   28.8361 C   0  0  0  0  0  0  0  0  0  0  0  0
   -0.4113    1.3401   28.4578 C   0  0  0  0  0  0  0  0  0  0  0  0
   -0.7735    1.6735   27.1774 O   0  0  0  0  0  0  0  0  0  0  0  0
   -2.0045    2.3986   27.1716 C   0  0  0  0  0  0  0  0  0  0  0  0
    2.0881    4.1374   29.8530 H   0  0  0  0  0  0  0  0  0  0  0  0
    1.0893    5.4079   29.1340 H   0  0  0  0  0  0  0  0  0  0  0  0
    0.5221    4.6135   30.6073 H   0  0  0  0  0  0  0  0  0  0  0  0
    1.0617    2.4855   31.3015 H   0  0  0  0  0  0  0  0  0  0  0  0
    0.6956    0.1844   31.9856 H   0  0  0  0  0  0  0  0  0  0  0  0
   -2.1325   -2.6134   29.4388 H   0  0  0  0  0  0  0  0  0  0  0  0
   -0.8926   -4.1583   27.9914 H   0  0  0  0  0  0  0  0  0  0  0  0
    3.6177   -2.3255   31.4869 H   0  0  0  0  0  0  0  0  0  0  0  0
    4.7745   -3.2181   30.6340 H   0  0  0  0  0  0  0  0  0  0  0  0
    0.0334   -2.8231   32.8943 H   0  0  0  0  0  0  0  0  0  0  0  0
   -0.1191   -3.8827   34.0788 H   0  0  0  0  0  0  0  0  0  0  0  0
   -0.7001   -5.1060   36.5618 H   0  0  0  0  0  0  0  0  0  0  0  0
   -0.8905   -8.9132   35.2512 H   0  0  0  0  0  0  0  0  0  0  0  0
   -0.0391   -7.6667   33.1532 H   0  0  0  0  0  0  0  0  0  0  0  0
   -1.0165   -0.6598   28.0924 H   0  0  0  0  0  0  0  0  0  0  0  0
   -2.2422    2.6420   26.1316 H   0  0  0  0  0  0  0  0  0  0  0  0
   -1.9346    3.3373   27.7298 H   0  0  0  0  0  0  0  0  0  0  0  0
   -2.8160    1.7800   27.5644 H   0  0  0  0  0  0  0  0  0  0  0  0
  1  2  1  0
  2  3  1  0
  3  4  2  0
  4  5  1  0
  5  6  2  0
  6  7  1  0
  7  8  1  0
  8  9  2  0
  9 10  1  0
 10 11  2  0
 11 12  1  0
 12 13  2  0
 13 14  1  0
 13 15  1  0
 15 16  1  0
 16 17  1  0
 17 18  1  0
 18 19  2  0
 18 20  1  0
 20 21  1  0
 21 22  1  0
 22 23  2  0
 23 24  1  0
 24 25  1  0
  6 26  1  0
 26 27  2  0
 27 28  1  0
 28 29  1  0
 27  3  1  0
 16  7  2  0
 25 21  2  0
 15 10  1  0
  1 30  1  0
  1 31  1  0
  1 32  1  0
  4 33  1  0
  5 34  1  0
  8 35  1  0
  9 36  1  0
 14 37  1  0
 14 38  1  0
 17 39  1  0
 20 40  1  0
 22 41  1  0
 24 42  1  0
 25 43  1  0
 26 44  1  0
 29 45  1  0
 29 46  1  0
 29 47  1  0
M  END
>  <Energy>  (965) 
140.01051261411118

>  <compound_id>  (965) 
3824

>  <target_id>  (965) 
1

>  <reference_id>  (965) 
131

>  <inspiration_ids>  (965) 
[131, 198]

>  <energy_score>  (965) 
-3.003121133742127

>  <distance_score>  (965) 
2.7556958572669186

>  <path>  (965) 
/opt/xchem-fragalysis-2/maxwin/BulkDock/SCRATCH/505734/C3824-P131/C3824-P131.minimised.mol

>  <scratch_subdir>  (965) 
/opt/xchem-fragalysis-2/maxwin/BulkDock/SCRATCH/505734/C3824-P131

>  <fragmenstein_runtime>  (965) 
79.48868560791016

>  <fragmenstein_outcome>  (965) 
too moved

>  <fragmenstein_mode>  (965) 
expansion

>  <fragmenstein_error>  (965) 


$$$$
C3824-P198
     RDKit          3D

 47 50  0  0  0  0  0  0  0  0999 V2000
   -0.5115    4.2622   28.2875 C   0  0  0  0  0  0  0  0  0  0  0  0
    0.1377    3.1230   27.7244 O   0  0  0  0  0  0  0  0  0  0  0  0
   -0.0424    2.0132   28.5018 C   0  0  0  0  0  0  0  0  0  0  0  0
    1.0792    1.5017   29.1470 C   0  0  0  0  0  0  0  0  0  0  0  0
    0.9947    0.3057   29.8668 C   0  0  0  0  0  0  0  0  0  0  0  0
   -0.2134   -0.4072   29.9372 C   0  0  0  0  0  0  0  0  0  0  0  0
   -0.3232   -1.8235   30.4502 C   0  0  0  0  0  0  0  0  0  0  0  0
   -0.9548   -2.7368   29.4734 C   0  0  0  0  0  0  0  0  0  0  0  0
   -0.1934   -3.5324   28.7072 C   0  0  0  0  0  0  0  0  0  0  0  0
    1.2032   -3.5927   28.9376 C   0  0  0  0  0  0  0  0  0  0  0  0
    2.1919   -4.2344   28.3519 N   0  0  0  0  0  0  0  0  0  0  0  0
    3.3075   -4.1042   29.1534 N   0  0  0  0  0  0  0  0  0  0  0  0
    2.9830   -3.3764   30.1994 C   0  0  0  0  0  0  0  0  0  0  0  0
    3.7851   -3.0203   31.2343 N   0  0  0  0  0  0  0  0  0  0  0  0
    1.6614   -2.9876   30.1002 N   0  0  0  0  0  0  0  0  0  0  0  0
    0.7963   -2.3374   31.0341 C   0  0  0  0  0  0  0  0  0  0  0  0
    0.6716   -3.1653   32.1317 N   0  0  0  0  0  0  0  0  0  0  0  0
   -0.3910   -4.1697   32.4871 C   0  0  0  0  0  0  0  0  0  0  0  0
   -1.4049   -4.4241   31.9477 O   0  0  0  0  0  0  0  0  0  0  0  0
    0.2635   -4.8155   33.6628 N   0  0  0  0  0  0  0  0  0  0  0  0
   -0.0815   -5.9235   34.3731 C   0  0  0  0  0  0  0  0  0  0  0  0
    0.4845   -6.4250   35.5559 C   0  0  0  0  0  0  0  0  0  0  0  0
   -0.0368   -7.6012   35.9053 N   0  0  0  0  0  0  0  0  0  0  0  0
   -0.9577   -7.8363   34.9500 N   0  0  0  0  0  0  0  0  0  0  0  0
   -1.0074   -6.8613   34.0001 C   0  0  0  0  0  0  0  0  0  0  0  0
   -1.3446    0.1629   29.3398 C   0  0  0  0  0  0  0  0  0  0  0  0
   -1.2525    1.3335   28.5911 C   0  0  0  0  0  0  0  0  0  0  0  0
   -2.4002    1.7786   28.0064 O   0  0  0  0  0  0  0  0  0  0  0  0
   -2.4125    1.5035   26.6114 C   0  0  0  0  0  0  0  0  0  0  0  0
   -0.1543    4.4402   29.3067 H   0  0  0  0  0  0  0  0  0  0  0  0
   -0.2402    5.1322   27.6818 H   0  0  0  0  0  0  0  0  0  0  0  0
   -1.6003    4.1659   28.2599 H   0  0  0  0  0  0  0  0  0  0  0  0
    2.0304    2.0201   29.0606 H   0  0  0  0  0  0  0  0  0  0  0  0
    1.9096   -0.0731   30.3110 H   0  0  0  0  0  0  0  0  0  0  0  0
   -2.0301   -2.6967   29.3373 H   0  0  0  0  0  0  0  0  0  0  0  0
   -0.6591   -4.1491   27.9594 H   0  0  0  0  0  0  0  0  0  0  0  0
    4.7691   -3.2198   31.0528 H   0  0  0  0  0  0  0  0  0  0  0  0
    3.6869   -2.0707   31.5846 H   0  0  0  0  0  0  0  0  0  0  0  0
    1.4478   -3.2659   32.7597 H   0  0  0  0  0  0  0  0  0  0  0  0
    1.0802   -4.2961   33.9136 H   0  0  0  0  0  0  0  0  0  0  0  0
    1.2630   -5.9990   36.1737 H   0  0  0  0  0  0  0  0  0  0  0  0
   -1.4564   -8.7273   34.9687 H   0  0  0  0  0  0  0  0  0  0  0  0
   -1.6582   -6.9412   33.1438 H   0  0  0  0  0  0  0  0  0  0  0  0
   -2.2999   -0.3470   29.3862 H   0  0  0  0  0  0  0  0  0  0  0  0
   -1.7030    2.1399   26.0745 H   0  0  0  0  0  0  0  0  0  0  0  0
   -3.4153    1.7300   26.2378 H   0  0  0  0  0  0  0  0  0  0  0  0
   -2.2082    0.4457   26.4159 H   0  0  0  0  0  0  0  0  0  0  0  0
  1  2  1  0
  2  3  1  0
  3  4  2  0
  4  5  1  0
  5  6  2  0
  6  7  1  0
  7  8  1  0
  8  9  2  0
  9 10  1  0
 10 11  2  0
 11 12  1  0
 12 13  2  0
 13 14  1  0
 13 15  1  0
 15 16  1  0
 16 17  1  0
 17 18  1  0
 18 19  2  0
 18 20  1  0
 20 21  1  0
 21 22  1  0
 22 23  2  0
 23 24  1  0
 24 25  1  0
  6 26  1  0
 26 27  2  0
 27 28  1  0
 28 29  1  0
 27  3  1  0
 16  7  2  0
 25 21  2  0
 15 10  1  0
  1 30  1  0
  1 31  1  0
  1 32  1  0
  4 33  1  0
  5 34  1  0
  8 35  1  0
  9 36  1  0
 14 37  1  0
 14 38  1  0
 17 39  1  0
 20 40  1  0
 22 41  1  0
 24 42  1  0
 25 43  1  0
 26 44  1  0
 29 45  1  0
 29 46  1  0
 29 47  1  0
M  END
>  <Energy>  (966) 
145.74579209227079

>  <compound_id>  (966) 
3824

>  <target_id>  (966) 
1

>  <reference_id>  (966) 
198

>  <inspiration_ids>  (966) 
[131, 198]

>  <energy_score>  (966) 
2.732158344411573

>  <distance_score>  (966) 
2.7233354290513927

>  <path>  (966) 
/opt/xchem-fragalysis-2/maxwin/BulkDock/SCRATCH/505734/C3824-P198/C3824-P198.minimised.mol

>  <scratch_subdir>  (966) 
/opt/xchem-fragalysis-2/maxwin/BulkDock/SCRATCH/505734/C3824-P198

>  <fragmenstein_runtime>  (966) 
78.61144781112671

>  <fragmenstein_outcome>  (966) 
too moved

>  <fragmenstein_mode>  (966) 
expansion

>  <fragmenstein_error>  (966) 


$$$$
C3825-P131
     RDKit          3D

 61 66  0  0  0  0  0  0  0  0999 V2000
    3.4000   -5.0984   28.0694 C   0  0  0  0  0  0  0  0  0  0  0  0
    2.3501   -4.2847   28.2398 C   0  0  0  0  0  0  0  0  0  0  0  0
    2.4220   -2.8919   28.7724 C   0  0  0  0  0  0  0  0  0  0  0  0
    1.5159   -2.6333   29.8986 N   0  0  0  0  0  0  0  0  0  0  0  0
    1.6445   -3.3172   31.1117 C   0  0  0  0  0  0  0  0  0  0  0  0
    1.2784   -4.6935   31.4948 C   0  0  0  0  0  0  0  0  0  0  0  0
    0.3918   -5.5353   30.8213 C   0  0  0  0  0  0  0  0  0  0  0  0
   -0.1279   -6.6755   31.4499 C   0  0  0  0  0  0  0  0  0  0  0  0
    0.3003   -6.9810   32.7257 C   0  0  0  0  0  0  0  0  0  0  0  0
    1.2513   -6.2820   33.3660 N   0  0  0  0  0  0  0  0  0  0  0  0
    1.6807   -5.1493   32.7505 C   0  0  0  0  0  0  0  0  0  0  0  0
    2.1227   -2.4261   31.9664 N   0  0  0  0  0  0  0  0  0  0  0  0
    1.9438   -1.1714   31.4516 N   0  0  0  0  0  0  0  0  0  0  0  0
    1.3152   -1.2980   30.2933 C   0  0  0  0  0  0  0  0  0  0  0  0
    0.2101   -0.2940   29.7964 C   0  0  0  0  0  0  0  0  0  0  0  0
    0.7247    1.1465   29.6080 C   0  0  0  0  0  0  0  0  0  0  0  0
   -0.1556    2.1440   29.1540 C   0  0  0  0  0  0  0  0  0  0  0  0
    0.2647    3.4571   28.9461 C   0  0  0  0  0  0  0  0  0  0  0  0
    1.5860    3.8234   29.1999 C   0  0  0  0  0  0  0  0  0  0  0  0
    2.0818    5.0917   29.0279 O   0  0  0  0  0  0  0  0  0  0  0  0
    1.1296    6.1418   28.9142 C   0  0  0  0  0  0  0  0  0  0  0  0
    2.4940    2.8494   29.6482 C   0  0  0  0  0  0  0  0  0  0  0  0
    3.7823    3.2761   29.8629 O   0  0  0  0  0  0  0  0  0  0  0  0
    4.6521    2.4036   30.5706 C   0  0  0  0  0  0  0  0  0  0  0  0
    2.0600    1.5277   29.8394 C   0  0  0  0  0  0  0  0  0  0  0  0
   -0.4088   -0.7279   28.4297 C   0  0  0  0  0  0  0  0  0  0  0  0
   -1.1667   -2.0478   28.4547 C   0  0  0  0  0  0  0  0  0  0  0  0
   -1.5484   -2.4650   29.8149 C   0  0  0  0  0  0  0  0  0  0  0  0
   -1.7772   -3.6511   30.3090 N   0  0  0  0  0  0  0  0  0  0  0  0
   -2.1820   -3.5205   31.6178 N   0  0  0  0  0  0  0  0  0  0  0  0
   -2.0833   -2.2493   31.9203 C   0  0  0  0  0  0  0  0  0  0  0  0
   -2.3035   -1.4816   33.0822 C   0  0  0  0  0  0  0  0  0  0  0  0
   -1.8182   -0.2194   33.1259 C   0  0  0  0  0  0  0  0  0  0  0  0
   -0.9998    0.3297   32.0365 C   0  0  0  0  0  0  0  0  0  0  0  0
   -0.8751   -0.3869   30.8971 C   0  0  0  0  0  0  0  0  0  0  0  0
   -1.5315   -1.5973   30.8515 N   0  0  0  0  0  0  0  0  0  0  0  0
    3.2691   -6.1003   27.6712 H   0  0  0  0  0  0  0  0  0  0  0  0
    4.4115   -4.7897   28.3192 H   0  0  0  0  0  0  0  0  0  0  0  0
    1.3607   -4.6341   27.9777 H   0  0  0  0  0  0  0  0  0  0  0  0
    3.4334   -2.6403   29.1155 H   0  0  0  0  0  0  0  0  0  0  0  0
    2.1513   -2.1908   27.9773 H   0  0  0  0  0  0  0  0  0  0  0  0
    0.0044   -5.2627   29.8460 H   0  0  0  0  0  0  0  0  0  0  0  0
   -0.8837   -7.2793   30.9624 H   0  0  0  0  0  0  0  0  0  0  0  0
   -0.1200   -7.8182   33.2744 H   0  0  0  0  0  0  0  0  0  0  0  0
    2.3630   -4.5580   33.3602 H   0  0  0  0  0  0  0  0  0  0  0  0
   -1.2024    1.9252   28.9474 H   0  0  0  0  0  0  0  0  0  0  0  0
   -0.4701    4.1760   28.5941 H   0  0  0  0  0  0  0  0  0  0  0  0
    1.6760    7.0898   28.9321 H   0  0  0  0  0  0  0  0  0  0  0  0
    0.4337    6.1447   29.7592 H   0  0  0  0  0  0  0  0  0  0  0  0
    0.5968    6.0859   27.9596 H   0  0  0  0  0  0  0  0  0  0  0  0
    5.5790    2.9488   30.7736 H   0  0  0  0  0  0  0  0  0  0  0  0
    4.9086    1.5300   29.9627 H   0  0  0  0  0  0  0  0  0  0  0  0
    4.2246    2.1057   31.5340 H   0  0  0  0  0  0  0  0  0  0  0  0
    2.7766    0.7855   30.1718 H   0  0  0  0  0  0  0  0  0  0  0  0
   -1.1308    0.0155   28.0697 H   0  0  0  0  0  0  0  0  0  0  0  0
    0.3666   -0.7600   27.6557 H   0  0  0  0  0  0  0  0  0  0  0  0
   -0.5428   -2.8393   28.0352 H   0  0  0  0  0  0  0  0  0  0  0  0
   -2.0625   -1.9581   27.8333 H   0  0  0  0  0  0  0  0  0  0  0  0
   -2.8230   -1.9318   33.9211 H   0  0  0  0  0  0  0  0  0  0  0  0
   -1.9281    0.3826   34.0232 H   0  0  0  0  0  0  0  0  0  0  0  0
   -0.3834    1.1998   32.2442 H   0  0  0  0  0  0  0  0  0  0  0  0
  1  2  2  0
  2  3  1  0
  3  4  1  0
  4  5  1  0
  5  6  1  0
  6  7  2  0
  7  8  1  0
  8  9  2  0
  9 10  1  0
 10 11  2  0
  5 12  2  0
 12 13  1  0
 13 14  2  0
 14 15  1  0
 15 16  1  0
 16 17  2  0
 17 18  1  0
 18 19  2  0
 19 20  1  0
 20 21  1  0
 19 22  1  0
 22 23  1  0
 23 24  1  0
 22 25  2  0
 15 26  1  0
 26 27  1  0
 27 28  1  0
 28 29  2  0
 29 30  1  0
 30 31  2  0
 31 32  1  0
 32 33  2  0
 33 34  1  0
 34 35  2  0
 35 36  1  0
 14  4  1  0
 35 15  1  0
 11  6  1  0
 25 16  1  0
 36 28  1  0
 36 31  1  0
  1 37  1  0
  1 38  1  0
  2 39  1  0
  3 40  1  0
  3 41  1  0
  7 42  1  0
  8 43  1  0
  9 44  1  0
 11 45  1  0
 17 46  1  0
 18 47  1  0
 21 48  1  0
 21 49  1  0
 21 50  1  0
 24 51  1  0
 24 52  1  0
 24 53  1  0
 25 54  1  0
 26 55  1  0
 26 56  1  0
 27 57  1  0
 27 58  1  0
 32 59  1  0
 33 60  1  0
 34 61  1  0
M  END
>  <Energy>  (967) 
174.42380246139257

>  <compound_id>  (967) 
3825

>  <target_id>  (967) 
1

>  <reference_id>  (967) 
131

>  <inspiration_ids>  (967) 
[131, 199]

>  <energy_score>  (967) 
-20.130512971216262

>  <distance_score>  (967) 
2.518711907483732

>  <path>  (967) 
/opt/xchem-fragalysis-2/maxwin/BulkDock/SCRATCH/505734/C3825-P131/C3825-P131.minimised.mol

>  <scratch_subdir>  (967) 
/opt/xchem-fragalysis-2/maxwin/BulkDock/SCRATCH/505734/C3825-P131

>  <fragmenstein_runtime>  (967) 
29.56490993499756

>  <fragmenstein_outcome>  (967) 
too moved

>  <fragmenstein_mode>  (967) 
expansion

>  <fragmenstein_error>  (967) 


$$$$
C3825-P199
     RDKit          3D

 61 66  0  0  0  0  0  0  0  0999 V2000
   -0.2543   -6.5681   31.2061 C   0  0  0  0  0  0  0  0  0  0  0  0
   -0.4065   -5.2377   31.1612 C   0  0  0  0  0  0  0  0  0  0  0  0
    0.2813   -4.3298   30.1968 C   0  0  0  0  0  0  0  0  0  0  0  0
    0.7363   -3.0952   30.8365 N   0  0  0  0  0  0  0  0  0  0  0  0
    1.9310   -3.0323   32.1794 C   0  0  0  0  0  0  0  0  0  0  0  0
    2.1672   -4.1207   33.1181 C   0  0  0  0  0  0  0  0  0  0  0  0
    1.1241   -4.6608   33.8807 C   0  0  0  0  0  0  0  0  0  0  0  0
    1.3656   -5.6792   34.7967 C   0  0  0  0  0  0  0  0  0  0  0  0
    2.6677   -6.1093   34.9460 C   0  0  0  0  0  0  0  0  0  0  0  0
    3.7091   -5.6030   34.2476 N   0  0  0  0  0  0  0  0  0  0  0  0
    3.4375   -4.6015   33.3697 C   0  0  0  0  0  0  0  0  0  0  0  0
    2.3936   -1.4374   32.3346 N   0  0  0  0  0  0  0  0  0  0  0  0
    1.3956   -0.2937   31.1133 N   0  0  0  0  0  0  0  0  0  0  0  0
    0.4600   -1.3544   30.1746 C   0  0  0  0  0  0  0  0  0  0  0  0
   -0.3512   -1.2663   29.0628 C   0  0  0  0  0  0  0  0  0  0  0  0
   -0.6044    0.1047   28.4562 C   0  0  0  0  0  0  0  0  0  0  0  0
   -1.7060    0.2342   27.5973 C   0  0  0  0  0  0  0  0  0  0  0  0
   -2.0123    1.4493   26.9742 C   0  0  0  0  0  0  0  0  0  0  0  0
   -1.2012    2.5657   27.1619 C   0  0  0  0  0  0  0  0  0  0  0  0
   -1.3863    3.7751   26.5468 O   0  0  0  0  0  0  0  0  0  0  0  0
   -2.6132    3.9679   25.8524 C   0  0  0  0  0  0  0  0  0  0  0  0
   -0.0969    2.4577   28.0165 C   0  0  0  0  0  0  0  0  0  0  0  0
    0.7120    3.5590   28.1605 O   0  0  0  0  0  0  0  0  0  0  0  0
    1.0538    3.8410   29.5165 C   0  0  0  0  0  0  0  0  0  0  0  0
    0.2008    1.2396   28.6454 C   0  0  0  0  0  0  0  0  0  0  0  0
    1.2741   -1.7307   28.8282 C   0  0  0  0  0  0  0  0  0  0  0  0
    2.1406   -1.8317   30.5604 C   0  0  0  0  0  0  0  0  0  0  0  0
    0.5082   -1.5868   32.0586 C   0  0  0  0  0  0  0  0  0  0  0  0
    0.4152   -1.5049   33.4173 N   0  0  0  0  0  0  0  0  0  0  0  0
   -0.9084   -1.6694   33.8369 N   0  0  0  0  0  0  0  0  0  0  0  0
   -1.7007   -1.7473   32.7954 C   0  0  0  0  0  0  0  0  0  0  0  0
   -3.0645   -2.0751   32.6024 C   0  0  0  0  0  0  0  0  0  0  0  0
   -3.5614   -2.1758   31.3509 C   0  0  0  0  0  0  0  0  0  0  0  0
   -2.7839   -1.8983   30.1361 C   0  0  0  0  0  0  0  0  0  0  0  0
   -1.4891   -1.5536   30.2584 C   0  0  0  0  0  0  0  0  0  0  0  0
   -0.9847   -1.5279   31.6608 N   0  0  0  0  0  0  0  0  0  0  0  0
    0.3755   -7.0991   30.5013 H   0  0  0  0  0  0  0  0  0  0  0  0
   -0.7623   -7.1590   31.9652 H   0  0  0  0  0  0  0  0  0  0  0  0
   -1.0479   -4.7668   31.9015 H   0  0  0  0  0  0  0  0  0  0  0  0
    1.1722   -4.7919   29.7607 H   0  0  0  0  0  0  0  0  0  0  0  0
   -0.4064   -4.0497   29.3958 H   0  0  0  0  0  0  0  0  0  0  0  0
    0.1192   -4.2490   33.8188 H   0  0  0  0  0  0  0  0  0  0  0  0
    0.5634   -6.0844   35.4044 H   0  0  0  0  0  0  0  0  0  0  0  0
    2.9228   -6.8788   35.6686 H   0  0  0  0  0  0  0  0  0  0  0  0
    4.3076   -4.1890   32.8655 H   0  0  0  0  0  0  0  0  0  0  0  0
   -2.3338   -0.6271   27.3699 H   0  0  0  0  0  0  0  0  0  0  0  0
   -2.8815    1.4817   26.3252 H   0  0  0  0  0  0  0  0  0  0  0  0
   -2.6271    4.9977   25.4850 H   0  0  0  0  0  0  0  0  0  0  0  0
   -3.4727    3.8277   26.5158 H   0  0  0  0  0  0  0  0  0  0  0  0
   -2.6752    3.3109   24.9789 H   0  0  0  0  0  0  0  0  0  0  0  0
    1.3166    4.9012   29.5814 H   0  0  0  0  0  0  0  0  0  0  0  0
    1.9309    3.2590   29.8157 H   0  0  0  0  0  0  0  0  0  0  0  0
    0.2189    3.6581   30.2011 H   0  0  0  0  0  0  0  0  0  0  0  0
    1.0949    1.1854   29.2582 H   0  0  0  0  0  0  0  0  0  0  0  0
    1.8633   -1.0091   28.2346 H   0  0  0  0  0  0  0  0  0  0  0  0
    1.3585   -2.7189   28.3460 H   0  0  0  0  0  0  0  0  0  0  0  0
    2.9639   -1.0429   30.4659 H   0  0  0  0  0  0  0  0  0  0  0  0
    2.7434   -2.7798   30.4050 H   0  0  0  0  0  0  0  0  0  0  0  0
   -3.6653   -2.3001   33.4770 H   0  0  0  0  0  0  0  0  0  0  0  0
   -4.5873   -2.5026   31.2239 H   0  0  0  0  0  0  0  0  0  0  0  0
   -3.2536   -2.0077   29.1645 H   0  0  0  0  0  0  0  0  0  0  0  0
  1  2  2  0
  2  3  1  0
  3  4  1  0
  4  5  1  0
  5  6  1  0
  6  7  2  0
  7  8  1  0
  8  9  2  0
  9 10  1  0
 10 11  2  0
  5 12  2  0
 12 13  1  0
 13 14  2  0
 14 15  1  0
 15 16  1  0
 16 17  2  0
 17 18  1  0
 18 19  2  0
 19 20  1  0
 20 21  1  0
 19 22  1  0
 22 23  1  0
 23 24  1  0
 22 25  2  0
 15 26  1  0
 26 27  1  0
 27 28  1  0
 28 29  2  0
 29 30  1  0
 30 31  2  0
 31 32  1  0
 32 33  2  0
 33 34  1  0
 34 35  2  0
 35 36  1  0
 14  4  1  0
 35 15  1  0
 11  6  1  0
 25 16  1  0
 36 28  1  0
 36 31  1  0
  1 37  1  0
  1 38  1  0
  2 39  1  0
  3 40  1  0
  3 41  1  0
  7 42  1  0
  8 43  1  0
  9 44  1  0
 11 45  1  0
 17 46  1  0
 18 47  1  0
 21 48  1  0
 21 49  1  0
 21 50  1  0
 24 51  1  0
 24 52  1  0
 24 53  1  0
 25 54  1  0
 26 55  1  0
 26 56  1  0
 27 57  1  0
 27 58  1  0
 32 59  1  0
 33 60  1  0
 34 61  1  0
M  END
>  <Energy>  (968) 
1399.6267782135615

>  <compound_id>  (968) 
3825

>  <target_id>  (968) 
1

>  <reference_id>  (968) 
199

>  <inspiration_ids>  (968) 
[131, 199]

>  <energy_score>  (968) 
1164.5427259841235

>  <distance_score>  (968) 
3.5888092342867752

>  <path>  (968) 
/opt/xchem-fragalysis-2/maxwin/BulkDock/SCRATCH/505734/C3825-P199/C3825-P199.minimised.mol

>  <scratch_subdir>  (968) 
/opt/xchem-fragalysis-2/maxwin/BulkDock/SCRATCH/505734/C3825-P199

>  <fragmenstein_runtime>  (968) 
37.115110635757446

>  <fragmenstein_outcome>  (968) 
too moved

>  <fragmenstein_mode>  (968) 
expansion

>  <fragmenstein_error>  (968) 


$$$$
C3827-P131
     RDKit          3D

 46 49  0  0  0  0  0  0  0  0999 V2000
   -2.3316   -8.6448   31.9922 C   0  0  0  0  0  0  0  0  0  0  0  0
   -1.9769   -7.3967   31.5309 O   0  0  0  0  0  0  0  0  0  0  0  0
   -0.7368   -7.1794   31.9744 C   0  0  0  0  0  0  0  0  0  0  0  0
    0.1512   -7.1599   30.9465 C   0  0  0  0  0  0  0  0  0  0  0  0
    1.2538   -6.4058   31.1543 C   0  0  0  0  0  0  0  0  0  0  0  0
    1.4610   -5.7347   32.3750 C   0  0  0  0  0  0  0  0  0  0  0  0
    2.0417   -4.3864   32.1682 C   0  0  0  0  0  0  0  0  0  0  0  0
    3.1995   -4.2500   31.2725 C   0  0  0  0  0  0  0  0  0  0  0  0
    3.0437   -3.8360   30.0008 C   0  0  0  0  0  0  0  0  0  0  0  0
    1.7554   -3.4238   29.5920 C   0  0  0  0  0  0  0  0  0  0  0  0
    1.2094   -3.2552   28.4159 N   0  0  0  0  0  0  0  0  0  0  0  0
   -0.0908   -2.8661   28.6334 N   0  0  0  0  0  0  0  0  0  0  0  0
   -0.2834   -2.7239   29.9227 C   0  0  0  0  0  0  0  0  0  0  0  0
   -1.3325   -2.1517   30.5497 N   0  0  0  0  0  0  0  0  0  0  0  0
   -2.0730   -1.2058   29.7288 C   0  0  0  0  0  0  0  0  0  0  0  0
   -1.2681   -0.0105   29.2799 C   0  0  0  0  0  0  0  0  0  0  0  0
   -0.3672    0.6462   30.1215 C   0  0  0  0  0  0  0  0  0  0  0  0
    0.2913    1.7663   29.6403 C   0  0  0  0  0  0  0  0  0  0  0  0
    0.0964    2.2858   28.4122 N   0  0  0  0  0  0  0  0  0  0  0  0
   -0.7842    1.6435   27.6171 C   0  0  0  0  0  0  0  0  0  0  0  0
   -1.4652    0.5004   27.9926 C   0  0  0  0  0  0  0  0  0  0  0  0
    0.8233   -3.1805   30.5895 N   0  0  0  0  0  0  0  0  0  0  0  0
    0.9952   -3.5527   31.9282 C   0  0  0  0  0  0  0  0  0  0  0  0
    0.6931   -6.0325   33.4880 C   0  0  0  0  0  0  0  0  0  0  0  0
   -0.4545   -6.7612   33.2718 C   0  0  0  0  0  0  0  0  0  0  0  0
   -1.4078   -6.8678   34.2385 O   0  0  0  0  0  0  0  0  0  0  0  0
   -0.9208   -7.4665   35.4381 C   0  0  0  0  0  0  0  0  0  0  0  0
   -1.6799   -9.4188   31.5778 H   0  0  0  0  0  0  0  0  0  0  0  0
   -3.3253   -8.7154   31.5735 H   0  0  0  0  0  0  0  0  0  0  0  0
   -2.3744   -8.7101   33.0806 H   0  0  0  0  0  0  0  0  0  0  0  0
   -0.1045   -7.5318   29.9644 H   0  0  0  0  0  0  0  0  0  0  0  0
    1.8314   -6.1719   30.2633 H   0  0  0  0  0  0  0  0  0  0  0  0
    4.1723   -4.5329   31.6611 H   0  0  0  0  0  0  0  0  0  0  0  0
    3.8686   -3.7773   29.3010 H   0  0  0  0  0  0  0  0  0  0  0  0
   -1.2138   -1.8424   31.5064 H   0  0  0  0  0  0  0  0  0  0  0  0
   -2.8829   -0.8135   30.3482 H   0  0  0  0  0  0  0  0  0  0  0  0
   -2.5040   -1.7244   28.8649 H   0  0  0  0  0  0  0  0  0  0  0  0
   -0.1709    0.3020   31.1287 H   0  0  0  0  0  0  0  0  0  0  0  0
    1.0060    2.3046   30.2557 H   0  0  0  0  0  0  0  0  0  0  0  0
   -0.9306    2.0824   26.6354 H   0  0  0  0  0  0  0  0  0  0  0  0
   -2.1288    0.0136   27.2841 H   0  0  0  0  0  0  0  0  0  0  0  0
    0.0608   -3.5796   32.4821 H   0  0  0  0  0  0  0  0  0  0  0  0
    0.8286   -5.4983   34.4236 H   0  0  0  0  0  0  0  0  0  0  0  0
   -1.6929   -8.1447   35.8041 H   0  0  0  0  0  0  0  0  0  0  0  0
   -0.0058   -8.0510   35.2916 H   0  0  0  0  0  0  0  0  0  0  0  0
   -0.7471   -6.6880   36.1867 H   0  0  0  0  0  0  0  0  0  0  0  0
  1  2  1  0
  2  3  1  0
  3  4  2  0
  4  5  1  0
  5  6  2  0
  6  7  1  0
  7  8  1  0
  8  9  2  0
  9 10  1  0
 10 11  2  0
 11 12  1  0
 12 13  2  0
 13 14  1  0
 14 15  1  0
 15 16  1  0
 16 17  2  0
 17 18  1  0
 18 19  2  0
 19 20  1  0
 20 21  2  0
 13 22  1  0
 22 23  1  0
  6 24  1  0
 24 25  2  0
 25 26  1  0
 26 27  1  0
 25  3  1  0
 23  7  2  0
 22 10  1  0
 21 16  1  0
  1 28  1  0
  1 29  1  0
  1 30  1  0
  4 31  1  0
  5 32  1  0
  8 33  1  0
  9 34  1  0
 14 35  1  0
 15 36  1  0
 15 37  1  0
 17 38  1  0
 18 39  1  0
 20 40  1  0
 21 41  1  0
 23 42  1  0
 24 43  1  0
 27 44  1  0
 27 45  1  0
 27 46  1  0
M  END
>  <Energy>  (969) 
158.40626437426295

>  <compound_id>  (969) 
3827

>  <target_id>  (969) 
1

>  <reference_id>  (969) 
131

>  <inspiration_ids>  (969) 
[131, 201]

>  <energy_score>  (969) 
19.283232620220815

>  <distance_score>  (969) 
2.4681863895245413

>  <path>  (969) 
/opt/xchem-fragalysis-2/maxwin/BulkDock/SCRATCH/505734/C3827-P131/C3827-P131.minimised.mol

>  <scratch_subdir>  (969) 
/opt/xchem-fragalysis-2/maxwin/BulkDock/SCRATCH/505734/C3827-P131

>  <fragmenstein_runtime>  (969) 
4.960660696029663

>  <fragmenstein_outcome>  (969) 
too moved

>  <fragmenstein_mode>  (969) 
expansion

>  <fragmenstein_error>  (969) 


$$$$
C3827-P201
     RDKit          3D

 46 49  0  0  0  0  0  0  0  0999 V2000
   -3.0090   -8.6534   35.1305 C   0  0  0  0  0  0  0  0  0  0  0  0
   -2.5254   -8.6380   33.7820 O   0  0  0  0  0  0  0  0  0  0  0  0
   -1.4535   -7.8347   33.5201 C   0  0  0  0  0  0  0  0  0  0  0  0
   -0.9721   -6.9260   34.4769 C   0  0  0  0  0  0  0  0  0  0  0  0
    0.0006   -5.9907   34.1666 C   0  0  0  0  0  0  0  0  0  0  0  0
    0.4889   -5.9729   32.8828 C   0  0  0  0  0  0  0  0  0  0  0  0
    1.1921   -4.8609   32.2514 C   0  0  0  0  0  0  0  0  0  0  0  0
    2.3676   -5.0947   31.4118 C   0  0  0  0  0  0  0  0  0  0  0  0
    2.4010   -4.7116   30.1242 C   0  0  0  0  0  0  0  0  0  0  0  0
    1.3014   -3.9861   29.6145 C   0  0  0  0  0  0  0  0  0  0  0  0
    0.9600   -3.6408   28.3993 N   0  0  0  0  0  0  0  0  0  0  0  0
   -0.2474   -2.9930   28.4964 N   0  0  0  0  0  0  0  0  0  0  0  0
   -0.5809   -2.8824   29.7593 C   0  0  0  0  0  0  0  0  0  0  0  0
   -1.6181   -2.2052   30.3042 N   0  0  0  0  0  0  0  0  0  0  0  0
   -2.2811   -1.2588   29.4172 C   0  0  0  0  0  0  0  0  0  0  0  0
   -1.4201   -0.0906   28.9972 C   0  0  0  0  0  0  0  0  0  0  0  0
   -0.2879    0.3347   29.7032 C   0  0  0  0  0  0  0  0  0  0  0  0
    0.4021    1.4487   29.2505 C   0  0  0  0  0  0  0  0  0  0  0  0
    0.0383    2.1729   28.1748 N   0  0  0  0  0  0  0  0  0  0  0  0
   -1.0579    1.7557   27.5075 C   0  0  0  0  0  0  0  0  0  0  0  0
   -1.7998    0.6440   27.8673 C   0  0  0  0  0  0  0  0  0  0  0  0
    0.3417   -3.5535   30.5172 N   0  0  0  0  0  0  0  0  0  0  0  0
    0.2907   -3.9411   31.8502 C   0  0  0  0  0  0  0  0  0  0  0  0
    0.0662   -6.9226   31.9517 C   0  0  0  0  0  0  0  0  0  0  0  0
   -0.8908   -7.8695   32.2423 C   0  0  0  0  0  0  0  0  0  0  0  0
   -1.2779   -8.7845   31.3026 O   0  0  0  0  0  0  0  0  0  0  0  0
   -0.5764   -8.6840   30.0559 C   0  0  0  0  0  0  0  0  0  0  0  0
   -3.5581   -7.7504   35.3075 H   0  0  0  0  0  0  0  0  0  0  0  0
   -2.2148   -8.7621   35.8748 H   0  0  0  0  0  0  0  0  0  0  0  0
   -3.7106   -9.4792   35.2724 H   0  0  0  0  0  0  0  0  0  0  0  0
   -1.3955   -6.8639   35.4761 H   0  0  0  0  0  0  0  0  0  0  0  0
    0.2786   -5.2352   34.8946 H   0  0  0  0  0  0  0  0  0  0  0  0
    3.1990   -5.6099   31.8739 H   0  0  0  0  0  0  0  0  0  0  0  0
    3.2520   -4.9025   29.4821 H   0  0  0  0  0  0  0  0  0  0  0  0
   -1.5231   -1.8642   31.2531 H   0  0  0  0  0  0  0  0  0  0  0  0
   -3.1404   -0.8577   29.9649 H   0  0  0  0  0  0  0  0  0  0  0  0
   -2.6714   -1.7719   28.5352 H   0  0  0  0  0  0  0  0  0  0  0  0
    0.0702   -0.1803   30.5847 H   0  0  0  0  0  0  0  0  0  0  0  0
    1.2899    1.8057   29.7634 H   0  0  0  0  0  0  0  0  0  0  0  0
   -1.3383    2.3570   26.6478 H   0  0  0  0  0  0  0  0  0  0  0  0
   -2.6519    0.3556   27.2592 H   0  0  0  0  0  0  0  0  0  0  0  0
   -0.6613   -3.7710   32.3447 H   0  0  0  0  0  0  0  0  0  0  0  0
    0.4510   -6.8192   30.9447 H   0  0  0  0  0  0  0  0  0  0  0  0
   -0.7974   -9.5664   29.4703 H   0  0  0  0  0  0  0  0  0  0  0  0
    0.5105   -8.6394   30.1377 H   0  0  0  0  0  0  0  0  0  0  0  0
   -0.9489   -7.8121   29.5139 H   0  0  0  0  0  0  0  0  0  0  0  0
  1  2  1  0
  2  3  1  0
  3  4  2  0
  4  5  1  0
  5  6  2  0
  6  7  1  0
  7  8  1  0
  8  9  2  0
  9 10  1  0
 10 11  2  0
 11 12  1  0
 12 13  2  0
 13 14  1  0
 14 15  1  0
 15 16  1  0
 16 17  2  0
 17 18  1  0
 18 19  2  0
 19 20  1  0
 20 21  2  0
 13 22  1  0
 22 23  1  0
  6 24  1  0
 24 25  2  0
 25 26  1  0
 26 27  1  0
 25  3  1  0
 23  7  2  0
 22 10  1  0
 21 16  1  0
  1 28  1  0
  1 29  1  0
  1 30  1  0
  4 31  1  0
  5 32  1  0
  8 33  1  0
  9 34  1  0
 14 35  1  0
 15 36  1  0
 15 37  1  0
 17 38  1  0
 18 39  1  0
 20 40  1  0
 21 41  1  0
 23 42  1  0
 24 43  1  0
 27 44  1  0
 27 45  1  0
 27 46  1  0
M  END
>  <Energy>  (970) 
122.16815743213758

>  <compound_id>  (970) 
3827

>  <target_id>  (970) 
1

>  <reference_id>  (970) 
201

>  <inspiration_ids>  (970) 
[131, 201]

>  <energy_score>  (970) 
-16.954874321907596

>  <distance_score>  (970) 
1.9579373657974133

>  <path>  (970) 
/opt/xchem-fragalysis-2/maxwin/BulkDock/SCRATCH/505734/C3827-P201/C3827-P201.minimised.mol

>  <scratch_subdir>  (970) 
/opt/xchem-fragalysis-2/maxwin/BulkDock/SCRATCH/505734/C3827-P201

>  <fragmenstein_runtime>  (970) 
4.779592752456665

>  <fragmenstein_outcome>  (970) 
too moved

>  <fragmenstein_mode>  (970) 
expansion

>  <fragmenstein_error>  (970) 


$$$$
C3829-P132
     RDKit          3D

 47 51  0  0  0  0  0  0  0  0999 V2000
    6.2826   -1.2178   33.9350 C   0  0  0  0  0  0  0  0  0  0  0  0
    5.0015   -1.1052   34.5548 O   0  0  0  0  0  0  0  0  0  0  0  0
    4.0816   -1.8573   33.8695 C   0  0  0  0  0  0  0  0  0  0  0  0
    3.3353   -1.2232   32.8740 C   0  0  0  0  0  0  0  0  0  0  0  0
    2.3933   -1.9397   32.1383 C   0  0  0  0  0  0  0  0  0  0  0  0
    2.1759   -3.2849   32.4189 C   0  0  0  0  0  0  0  0  0  0  0  0
    1.3046   -4.1429   31.5906 C   0  0  0  0  0  0  0  0  0  0  0  0
    1.9129   -5.0582   30.6124 C   0  0  0  0  0  0  0  0  0  0  0  0
    1.2518   -6.1169   30.1156 C   0  0  0  0  0  0  0  0  0  0  0  0
    0.0417   -6.5091   30.7277 C   0  0  0  0  0  0  0  0  0  0  0  0
   -0.6551   -7.6229   30.7027 N   0  0  0  0  0  0  0  0  0  0  0  0
   -1.4024   -7.6370   31.8536 N   0  0  0  0  0  0  0  0  0  0  0  0
   -1.1700   -6.5113   32.4993 C   0  0  0  0  0  0  0  0  0  0  0  0
   -1.3509   -6.2926   33.8210 N   0  0  0  0  0  0  0  0  0  0  0  0
   -0.5175   -5.6219   31.6399 N   0  0  0  0  0  0  0  0  0  0  0  0
   -0.0236   -4.3032   31.8318 C   0  0  0  0  0  0  0  0  0  0  0  0
   -1.1906   -2.9388   31.8466 S   0  0  0  0  0  0  0  0  0  0  0  0
   -0.9188   -1.8506   30.3846 C   0  0  0  0  0  0  0  0  0  0  0  0
   -1.5439   -0.7018   30.3742 N   0  0  0  0  0  0  0  0  0  0  0  0
   -1.2435    0.2183   29.3713 C   0  0  0  0  0  0  0  0  0  0  0  0
   -1.8496    1.2606   29.1944 O   0  0  0  0  0  0  0  0  0  0  0  0
   -0.0486   -0.0821   28.6676 C   0  0  0  0  0  0  0  0  0  0  0  0
    0.8160    1.0736   27.8003 S   0  0  0  0  0  0  0  0  0  0  0  0
    2.1362   -0.0193   27.6487 C   0  0  0  0  0  0  0  0  0  0  0  0
    1.8480   -1.2704   28.1648 C   0  0  0  0  0  0  0  0  0  0  0  0
    0.5669   -1.2916   28.7418 C   0  0  0  0  0  0  0  0  0  0  0  0
   -0.0032   -2.2814   29.4518 N   0  0  0  0  0  0  0  0  0  0  0  0
    2.9092   -3.9085   33.4619 C   0  0  0  0  0  0  0  0  0  0  0  0
    3.8708   -3.2025   34.1907 C   0  0  0  0  0  0  0  0  0  0  0  0
    4.6409   -3.7084   35.2042 O   0  0  0  0  0  0  0  0  0  0  0  0
    4.6927   -5.1187   35.3557 C   0  0  0  0  0  0  0  0  0  0  0  0
    6.9858   -0.6049   34.5069 H   0  0  0  0  0  0  0  0  0  0  0  0
    6.6462   -2.2511   33.9492 H   0  0  0  0  0  0  0  0  0  0  0  0
    6.2599   -0.8370   32.9079 H   0  0  0  0  0  0  0  0  0  0  0  0
    3.5013   -0.1691   32.6651 H   0  0  0  0  0  0  0  0  0  0  0  0
    1.8569   -1.4257   31.3496 H   0  0  0  0  0  0  0  0  0  0  0  0
    2.8966   -4.7974   30.2261 H   0  0  0  0  0  0  0  0  0  0  0  0
    1.6914   -6.7421   29.3486 H   0  0  0  0  0  0  0  0  0  0  0  0
   -1.8211   -7.0579   34.3001 H   0  0  0  0  0  0  0  0  0  0  0  0
   -1.7493   -5.3918   34.1066 H   0  0  0  0  0  0  0  0  0  0  0  0
    3.0421    0.3013   27.1509 H   0  0  0  0  0  0  0  0  0  0  0  0
    2.5523   -2.0912   28.1421 H   0  0  0  0  0  0  0  0  0  0  0  0
    0.4047   -3.1974   29.5289 H   0  0  0  0  0  0  0  0  0  0  0  0
    2.7191   -4.9561   33.6771 H   0  0  0  0  0  0  0  0  0  0  0  0
    3.7323   -5.5075   35.7089 H   0  0  0  0  0  0  0  0  0  0  0  0
    4.9933   -5.6079   34.4231 H   0  0  0  0  0  0  0  0  0  0  0  0
    5.4469   -5.3492   36.1140 H   0  0  0  0  0  0  0  0  0  0  0  0
  1  2  1  0
  2  3  1  0
  3  4  2  0
  4  5  1  0
  5  6  2  0
  6  7  1  0
  7  8  1  0
  8  9  2  0
  9 10  1  0
 10 11  2  0
 11 12  1  0
 12 13  2  0
 13 14  1  0
 13 15  1  0
 15 16  1  0
 16 17  1  0
 17 18  1  0
 18 19  2  0
 19 20  1  0
 20 21  2  0
 20 22  1  0
 22 23  1  0
 23 24  1  0
 24 25  2  0
 25 26  1  0
 26 27  1  0
  6 28  1  0
 28 29  2  0
 29 30  1  0
 30 31  1  0
 29  3  1  0
 16  7  2  0
 27 18  1  0
 15 10  1  0
 26 22  2  0
  1 32  1  0
  1 33  1  0
  1 34  1  0
  4 35  1  0
  5 36  1  0
  8 37  1  0
  9 38  1  0
 14 39  1  0
 14 40  1  0
 24 41  1  0
 25 42  1  0
 27 43  1  0
 28 44  1  0
 31 45  1  0
 31 46  1  0
 31 47  1  0
M  END
>  <Energy>  (971) 
93.368291732414193

>  <compound_id>  (971) 
3829

>  <target_id>  (971) 
1

>  <reference_id>  (971) 
132

>  <inspiration_ids>  (971) 
[132, 13]

>  <energy_score>  (971) 
-26.78128105403448

>  <distance_score>  (971) 
2.080834305172525

>  <path>  (971) 
/opt/xchem-fragalysis-2/maxwin/BulkDock/SCRATCH/505734/C3829-P132/C3829-P132.minimised.mol

>  <scratch_subdir>  (971) 
/opt/xchem-fragalysis-2/maxwin/BulkDock/SCRATCH/505734/C3829-P132

>  <fragmenstein_runtime>  (971) 
3.735959053039551

>  <fragmenstein_outcome>  (971) 
too moved

>  <fragmenstein_mode>  (971) 
expansion

>  <fragmenstein_error>  (971) 


$$$$
C3829-P13
     RDKit          3D

 47 51  0  0  0  0  0  0  0  0999 V2000
    6.2632   -1.2188   33.9121 C   0  0  0  0  0  0  0  0  0  0  0  0
    4.9699   -1.0823   34.5005 O   0  0  0  0  0  0  0  0  0  0  0  0
    4.0601   -1.8548   33.8242 C   0  0  0  0  0  0  0  0  0  0  0  0
    3.3090   -1.2418   32.8178 C   0  0  0  0  0  0  0  0  0  0  0  0
    2.3716   -1.9755   32.0916 C   0  0  0  0  0  0  0  0  0  0  0  0
    2.1638   -3.3170   32.3944 C   0  0  0  0  0  0  0  0  0  0  0  0
    1.2941   -4.2007   31.5910 C   0  0  0  0  0  0  0  0  0  0  0  0
    1.9135   -5.1745   30.6783 C   0  0  0  0  0  0  0  0  0  0  0  0
    1.2518   -6.2512   30.2244 C   0  0  0  0  0  0  0  0  0  0  0  0
    0.0149   -6.5893   30.8114 C   0  0  0  0  0  0  0  0  0  0  0  0
   -0.7044   -7.6890   30.8217 N   0  0  0  0  0  0  0  0  0  0  0  0
   -1.4620   -7.6408   31.9643 N   0  0  0  0  0  0  0  0  0  0  0  0
   -1.2119   -6.4916   32.5601 C   0  0  0  0  0  0  0  0  0  0  0  0
   -1.3844   -6.2108   33.8700 N   0  0  0  0  0  0  0  0  0  0  0  0
   -0.5510   -5.6487   31.6611 N   0  0  0  0  0  0  0  0  0  0  0  0
   -0.0440   -4.3279   31.7969 C   0  0  0  0  0  0  0  0  0  0  0  0
   -1.1874   -2.9533   31.8125 S   0  0  0  0  0  0  0  0  0  0  0  0
   -0.9787   -1.9400   30.2839 C   0  0  0  0  0  0  0  0  0  0  0  0
   -1.6877   -0.8447   30.1963 N   0  0  0  0  0  0  0  0  0  0  0  0
   -1.4579    0.0145   29.1222 C   0  0  0  0  0  0  0  0  0  0  0  0
   -2.1725    0.9547   28.8261 O   0  0  0  0  0  0  0  0  0  0  0  0
   -0.2138   -0.2152   28.4775 C   0  0  0  0  0  0  0  0  0  0  0  0
    0.5894    0.9617   27.5807 S   0  0  0  0  0  0  0  0  0  0  0  0
    1.9698   -0.0592   27.4631 C   0  0  0  0  0  0  0  0  0  0  0  0
    1.7555   -1.3063   28.0228 C   0  0  0  0  0  0  0  0  0  0  0  0
    0.4857   -1.3719   28.6220 C   0  0  0  0  0  0  0  0  0  0  0  0
   -0.0188   -2.3570   29.3876 N   0  0  0  0  0  0  0  0  0  0  0  0
    2.9019   -3.9184   33.4484 C   0  0  0  0  0  0  0  0  0  0  0  0
    3.8593   -3.1962   34.1661 C   0  0  0  0  0  0  0  0  0  0  0  0
    4.6313   -3.6827   35.1875 O   0  0  0  0  0  0  0  0  0  0  0  0
    4.6858   -5.0902   35.3656 C   0  0  0  0  0  0  0  0  0  0  0  0
    6.2590   -0.8890   32.8672 H   0  0  0  0  0  0  0  0  0  0  0  0
    6.9525   -0.5749   34.4666 H   0  0  0  0  0  0  0  0  0  0  0  0
    6.6310   -2.2480   33.9838 H   0  0  0  0  0  0  0  0  0  0  0  0
    3.4666   -0.1892   32.5948 H   0  0  0  0  0  0  0  0  0  0  0  0
    1.8295   -1.4778   31.2953 H   0  0  0  0  0  0  0  0  0  0  0  0
    2.9106   -4.9479   30.3060 H   0  0  0  0  0  0  0  0  0  0  0  0
    1.6988   -6.9265   29.5077 H   0  0  0  0  0  0  0  0  0  0  0  0
   -1.8422   -6.9495   34.3970 H   0  0  0  0  0  0  0  0  0  0  0  0
   -1.7432   -5.2859   34.1255 H   0  0  0  0  0  0  0  0  0  0  0  0
    2.8566    0.2986   26.9593 H   0  0  0  0  0  0  0  0  0  0  0  0
    2.5045   -2.0865   28.0286 H   0  0  0  0  0  0  0  0  0  0  0  0
    0.4570   -3.2320   29.5253 H   0  0  0  0  0  0  0  0  0  0  0  0
    2.7161   -4.9628   33.6830 H   0  0  0  0  0  0  0  0  0  0  0  0
    4.9865   -5.5963   34.4421 H   0  0  0  0  0  0  0  0  0  0  0  0
    5.4410   -5.3048   36.1276 H   0  0  0  0  0  0  0  0  0  0  0  0
    3.7263   -5.4737   35.7269 H   0  0  0  0  0  0  0  0  0  0  0  0
  1  2  1  0
  2  3  1  0
  3  4  2  0
  4  5  1  0
  5  6  2  0
  6  7  1  0
  7  8  1  0
  8  9  2  0
  9 10  1  0
 10 11  2  0
 11 12  1  0
 12 13  2  0
 13 14  1  0
 13 15  1  0
 15 16  1  0
 16 17  1  0
 17 18  1  0
 18 19  2  0
 19 20  1  0
 20 21  2  0
 20 22  1  0
 22 23  1  0
 23 24  1  0
 24 25  2  0
 25 26  1  0
 26 27  1  0
  6 28  1  0
 28 29  2  0
 29 30  1  0
 30 31  1  0
 29  3  1  0
 16  7  2  0
 27 18  1  0
 15 10  1  0
 26 22  2  0
  1 32  1  0
  1 33  1  0
  1 34  1  0
  4 35  1  0
  5 36  1  0
  8 37  1  0
  9 38  1  0
 14 39  1  0
 14 40  1  0
 24 41  1  0
 25 42  1  0
 27 43  1  0
 28 44  1  0
 31 45  1  0
 31 46  1  0
 31 47  1  0
M  END
>  <Energy>  (972) 
91.948625680097578

>  <compound_id>  (972) 
3829

>  <target_id>  (972) 
1

>  <reference_id>  (972) 
13

>  <inspiration_ids>  (972) 
[132, 13]

>  <energy_score>  (972) 
-28.20094710635135

>  <distance_score>  (972) 
2.0432926373974545

>  <path>  (972) 
/opt/xchem-fragalysis-2/maxwin/BulkDock/SCRATCH/505734/C3829-P13/C3829-P13.minimised.mol

>  <scratch_subdir>  (972) 
/opt/xchem-fragalysis-2/maxwin/BulkDock/SCRATCH/505734/C3829-P13

>  <fragmenstein_runtime>  (972) 
3.3756778240203857

>  <fragmenstein_outcome>  (972) 
too moved

>  <fragmenstein_mode>  (972) 
expansion

>  <fragmenstein_error>  (972) 


$$$$
C3829-P132
     RDKit          2D

  0  0  0  0  0  0  0  0  0  0999 V2000
M  END
>  <compound_id>  (973) 
3829

>  <target_id>  (973) 
1

>  <reference_id>  (973) 
132

>  <inspiration_ids>  (973) 
[132, 25]

>  <energy_score>  (973) 
nan

>  <distance_score>  (973) 
nan

>  <path>  (973) 
/opt/xchem-fragalysis-2/maxwin/BulkDock/SCRATCH/505734/C3829-P132/C3829-P132.minimised.mol

>  <scratch_subdir>  (973) 
/opt/xchem-fragalysis-2/maxwin/BulkDock/SCRATCH/505734/C3829-P132

>  <fragmenstein_runtime>  (973) 
0.14412522315979004

>  <fragmenstein_outcome>  (973) 
too distant

>  <fragmenstein_mode>  (973) 
expansion

>  <fragmenstein_error>  (973) 
DistanceError: hit0+hit1

$$$$
C3830-P132
     RDKit          3D

 60 64  0  0  0  0  0  0  0  0999 V2000
    6.7828   -1.0590   34.1527 C   0  0  0  0  0  0  0  0  0  0  0  0
    5.8405   -0.8344   35.2022 O   0  0  0  0  0  0  0  0  0  0  0  0
    4.6486   -1.4221   34.8794 C   0  0  0  0  0  0  0  0  0  0  0  0
    3.8042   -0.7518   33.9959 C   0  0  0  0  0  0  0  0  0  0  0  0
    2.7011   -1.4130   33.4951 C   0  0  0  0  0  0  0  0  0  0  0  0
    2.4439   -2.7234   33.9182 C   0  0  0  0  0  0  0  0  0  0  0  0
    1.8048   -3.6371   32.9179 C   0  0  0  0  0  0  0  0  0  0  0  0
    2.7991   -4.7642   32.5989 C   0  0  0  0  0  0  0  0  0  0  0  0
    2.3429   -6.1417   33.0176 C   0  0  0  0  0  0  0  0  0  0  0  0
    1.3091   -6.2715   34.1238 C   0  0  0  0  0  0  0  0  0  0  0  0
    0.8129   -7.6659   34.0685 N   0  0  0  0  0  0  0  0  0  0  0  0
   -0.6212   -7.5184   34.3403 N   0  0  0  0  0  0  0  0  0  0  0  0
   -0.9274   -6.2054   33.7726 C   0  0  0  0  0  0  0  0  0  0  0  0
   -1.1284   -6.3113   32.2828 C   0  0  0  0  0  0  0  0  0  0  0  0
   -0.7255   -5.2716   31.5160 C   0  0  0  0  0  0  0  0  0  0  0  0
   -0.1127   -5.5821   29.9116 S   0  0  0  0  0  0  0  0  0  0  0  0
   -0.0805   -7.0296   29.7661 O   0  0  0  0  0  0  0  0  0  0  0  0
   -0.8573   -4.7185   29.0263 O   0  0  0  0  0  0  0  0  0  0  0  0
    1.4919   -5.0399   29.6975 N   0  0  0  0  0  0  0  0  0  0  0  0
    2.4547   -5.9493   28.9966 C   0  0  0  0  0  0  0  0  0  0  0  0
    3.0084   -5.4004   27.6762 C   0  0  0  0  0  0  0  0  0  0  0  0
    3.6517   -4.0980   27.8065 N   0  0  0  0  0  0  0  0  0  0  0  0
    3.0351   -3.2615   28.8443 C   0  0  0  0  0  0  0  0  0  0  0  0
    1.5900   -3.6234   29.1914 C   0  0  0  0  0  0  0  0  0  0  0  0
   -0.4081   -3.9975   32.1171 C   0  0  0  0  0  0  0  0  0  0  0  0
    0.4193   -4.1722   33.1586 C   0  0  0  0  0  0  0  0  0  0  0  0
    0.2454   -5.3254   33.9265 N   0  0  0  0  0  0  0  0  0  0  0  0
    3.1407   -3.2744   35.0019 C   0  0  0  0  0  0  0  0  0  0  0  0
    4.3186   -2.6743   35.4087 C   0  0  0  0  0  0  0  0  0  0  0  0
    5.2138   -3.2718   36.2523 O   0  0  0  0  0  0  0  0  0  0  0  0
    5.3140   -4.6898   36.1437 C   0  0  0  0  0  0  0  0  0  0  0  0
    6.5108   -0.5018   33.2498 H   0  0  0  0  0  0  0  0  0  0  0  0
    6.8885   -2.1264   33.9265 H   0  0  0  0  0  0  0  0  0  0  0  0
    7.7550   -0.6903   34.4939 H   0  0  0  0  0  0  0  0  0  0  0  0
    4.0614    0.2414   33.6405 H   0  0  0  0  0  0  0  0  0  0  0  0
    2.1302   -0.9529   32.6924 H   0  0  0  0  0  0  0  0  0  0  0  0
    1.7817   -3.0455   31.9942 H   0  0  0  0  0  0  0  0  0  0  0  0
    3.8019   -4.5862   33.0091 H   0  0  0  0  0  0  0  0  0  0  0  0
    3.0139   -4.7730   31.5309 H   0  0  0  0  0  0  0  0  0  0  0  0
    3.2155   -6.6554   33.4049 H   0  0  0  0  0  0  0  0  0  0  0  0
    1.9960   -6.6350   32.1063 H   0  0  0  0  0  0  0  0  0  0  0  0
    1.7643   -6.1097   35.1066 H   0  0  0  0  0  0  0  0  0  0  0  0
    0.8903   -7.9548   33.0911 H   0  0  0  0  0  0  0  0  0  0  0  0
   -1.2103   -8.2835   34.0046 H   0  0  0  0  0  0  0  0  0  0  0  0
   -1.7734   -5.8050   34.3013 H   0  0  0  0  0  0  0  0  0  0  0  0
   -1.3213   -7.2915   31.8608 H   0  0  0  0  0  0  0  0  0  0  0  0
    3.3016   -6.0845   29.6756 H   0  0  0  0  0  0  0  0  0  0  0  0
    2.0477   -6.9432   28.8206 H   0  0  0  0  0  0  0  0  0  0  0  0
    2.2209   -5.3280   26.9344 H   0  0  0  0  0  0  0  0  0  0  0  0
    3.7416   -6.1084   27.2738 H   0  0  0  0  0  0  0  0  0  0  0  0
    3.6586   -3.6067   26.9127 H   0  0  0  0  0  0  0  0  0  0  0  0
    3.6551   -3.3332   29.7454 H   0  0  0  0  0  0  0  0  0  0  0  0
    3.0814   -2.2144   28.5236 H   0  0  0  0  0  0  0  0  0  0  0  0
    1.2209   -2.9219   29.9386 H   0  0  0  0  0  0  0  0  0  0  0  0
    0.9887   -3.4938   28.2881 H   0  0  0  0  0  0  0  0  0  0  0  0
   -0.3285   -3.1570   31.4349 H   0  0  0  0  0  0  0  0  0  0  0  0
    2.8675   -4.2484   35.3831 H   0  0  0  0  0  0  0  0  0  0  0  0
    6.2404   -4.9965   36.6387 H   0  0  0  0  0  0  0  0  0  0  0  0
    5.3697   -5.0149   35.0990 H   0  0  0  0  0  0  0  0  0  0  0  0
    4.4827   -5.1769   36.6628 H   0  0  0  0  0  0  0  0  0  0  0  0
  1  2  1  0
  2  3  1  0
  3  4  2  0
  4  5  1  0
  5  6  2  0
  6  7  1  0
  7  8  1  0
  8  9  1  0
  9 10  1  0
 10 11  1  0
 11 12  1  0
 12 13  1  0
 13 14  1  0
 14 15  2  0
 15 16  1  0
 16 17  2  0
 16 18  2  0
 16 19  1  0
 19 20  1  0
 20 21  1  0
 21 22  1  0
 22 23  1  0
 23 24  1  0
 15 25  1  0
 25 26  2  0
 26 27  1  0
  6 28  1  0
 28 29  2  0
 29 30  1  0
 30 31  1  0
 29  3  1  0
 26  7  1  0
 27 10  1  0
 27 13  1  0
 24 19  1  0
  1 32  1  0
  1 33  1  0
  1 34  1  0
  4 35  1  0
  5 36  1  0
  7 37  1  0
  8 38  1  0
  8 39  1  0
  9 40  1  0
  9 41  1  0
 10 42  1  0
 11 43  1  0
 12 44  1  0
 13 45  1  0
 14 46  1  0
 20 47  1  0
 20 48  1  0
 21 49  1  0
 21 50  1  0
 22 51  1  0
 23 52  1  0
 23 53  1  0
 24 54  1  0
 24 55  1  0
 25 56  1  0
 28 57  1  0
 31 58  1  0
 31 59  1  0
 31 60  1  0
M  END
>  <Energy>  (974) 
177.75740863544442

>  <compound_id>  (974) 
3830

>  <target_id>  (974) 
1

>  <reference_id>  (974) 
132

>  <inspiration_ids>  (974) 
[132, 40]

>  <energy_score>  (974) 
17.392006783301497

>  <distance_score>  (974) 
2.072426189847429

>  <path>  (974) 
/opt/xchem-fragalysis-2/maxwin/BulkDock/SCRATCH/505734/C3830-P132/C3830-P132.minimised.mol

>  <scratch_subdir>  (974) 
/opt/xchem-fragalysis-2/maxwin/BulkDock/SCRATCH/505734/C3830-P132

>  <fragmenstein_runtime>  (974) 
5.820343494415283

>  <fragmenstein_outcome>  (974) 
too moved

>  <fragmenstein_mode>  (974) 
expansion

>  <fragmenstein_error>  (974) 


$$$$
C3830-P40
     RDKit          3D

 60 64  0  0  0  0  0  0  0  0999 V2000
    7.0325   -1.0226   34.1217 C   0  0  0  0  0  0  0  0  0  0  0  0
    6.0856   -1.0240   35.1899 O   0  0  0  0  0  0  0  0  0  0  0  0
    4.9548   -1.6813   34.7902 C   0  0  0  0  0  0  0  0  0  0  0  0
    4.0638   -0.9971   33.9671 C   0  0  0  0  0  0  0  0  0  0  0  0
    2.9795   -1.6731   33.4574 C   0  0  0  0  0  0  0  0  0  0  0  0
    2.7893   -3.0179   33.7985 C   0  0  0  0  0  0  0  0  0  0  0  0
    1.8208   -3.8100   32.9898 C   0  0  0  0  0  0  0  0  0  0  0  0
    2.5934   -4.7873   32.1476 C   0  0  0  0  0  0  0  0  0  0  0  0
    1.6301   -5.7032   31.4573 C   0  0  0  0  0  0  0  0  0  0  0  0
    0.9922   -6.6137   32.4960 C   0  0  0  0  0  0  0  0  0  0  0  0
    0.0405   -7.4993   31.7587 N   0  0  0  0  0  0  0  0  0  0  0  0
   -1.1757   -7.4706   32.5860 N   0  0  0  0  0  0  0  0  0  0  0  0
   -1.0499   -6.1464   33.2353 C   0  0  0  0  0  0  0  0  0  0  0  0
   -1.3823   -5.0935   32.2095 C   0  0  0  0  0  0  0  0  0  0  0  0
   -1.0975   -3.7975   32.4273 C   0  0  0  0  0  0  0  0  0  0  0  0
   -1.0315   -2.6540   31.0923 S   0  0  0  0  0  0  0  0  0  0  0  0
   -2.2658   -2.7769   30.3523 O   0  0  0  0  0  0  0  0  0  0  0  0
   -0.6328   -1.3701   31.6365 O   0  0  0  0  0  0  0  0  0  0  0  0
    0.2534   -3.1595   30.0354 N   0  0  0  0  0  0  0  0  0  0  0  0
   -0.0680   -4.0775   28.9073 C   0  0  0  0  0  0  0  0  0  0  0  0
    1.2304   -4.6870   28.3079 C   0  0  0  0  0  0  0  0  0  0  0  0
    2.4573   -3.9077   28.4794 N   0  0  0  0  0  0  0  0  0  0  0  0
    2.1062   -2.4794   28.4639 C   0  0  0  0  0  0  0  0  0  0  0  0
    1.1255   -2.0382   29.5721 C   0  0  0  0  0  0  0  0  0  0  0  0
   -0.4037   -3.5555   33.7011 C   0  0  0  0  0  0  0  0  0  0  0  0
    0.6525   -4.4085   33.7670 C   0  0  0  0  0  0  0  0  0  0  0  0
    0.3416   -5.8071   33.5418 N   0  0  0  0  0  0  0  0  0  0  0  0
    3.6065   -3.6549   34.7362 C   0  0  0  0  0  0  0  0  0  0  0  0
    4.7268   -2.9998   35.2094 C   0  0  0  0  0  0  0  0  0  0  0  0
    5.6567   -3.5666   36.0323 O   0  0  0  0  0  0  0  0  0  0  0  0
    5.6274   -4.9819   36.1641 C   0  0  0  0  0  0  0  0  0  0  0  0
    6.7116   -0.3641   33.3073 H   0  0  0  0  0  0  0  0  0  0  0  0
    7.2201   -2.0349   33.7447 H   0  0  0  0  0  0  0  0  0  0  0  0
    7.9761   -0.6318   34.5147 H   0  0  0  0  0  0  0  0  0  0  0  0
    4.2423    0.0405   33.7033 H   0  0  0  0  0  0  0  0  0  0  0  0
    2.3129   -1.1609   32.7673 H   0  0  0  0  0  0  0  0  0  0  0  0
    1.4230   -3.0994   32.2642 H   0  0  0  0  0  0  0  0  0  0  0  0
    3.2607   -5.3498   32.8015 H   0  0  0  0  0  0  0  0  0  0  0  0
    3.2293   -4.2604   31.4281 H   0  0  0  0  0  0  0  0  0  0  0  0
    2.1402   -6.1758   30.6291 H   0  0  0  0  0  0  0  0  0  0  0  0
    0.8556   -5.1383   30.9710 H   0  0  0  0  0  0  0  0  0  0  0  0
    1.7302   -7.1929   33.0404 H   0  0  0  0  0  0  0  0  0  0  0  0
    0.4165   -8.4372   31.6570 H   0  0  0  0  0  0  0  0  0  0  0  0
   -1.1107   -8.1551   33.3524 H   0  0  0  0  0  0  0  0  0  0  0  0
   -1.6739   -6.1096   34.1292 H   0  0  0  0  0  0  0  0  0  0  0  0
   -1.5959   -5.4465   31.2216 H   0  0  0  0  0  0  0  0  0  0  0  0
   -0.6931   -4.8923   29.2604 H   0  0  0  0  0  0  0  0  0  0  0  0
   -0.6051   -3.5095   28.1424 H   0  0  0  0  0  0  0  0  0  0  0  0
    1.1097   -4.8469   27.2439 H   0  0  0  0  0  0  0  0  0  0  0  0
    1.3881   -5.6928   28.7070 H   0  0  0  0  0  0  0  0  0  0  0  0
    2.8267   -4.0965   29.4089 H   0  0  0  0  0  0  0  0  0  0  0  0
    1.6802   -2.2216   27.4917 H   0  0  0  0  0  0  0  0  0  0  0  0
    3.0243   -1.8860   28.5448 H   0  0  0  0  0  0  0  0  0  0  0  0
    1.7115   -1.6854   30.4265 H   0  0  0  0  0  0  0  0  0  0  0  0
    0.5147   -1.2095   29.1962 H   0  0  0  0  0  0  0  0  0  0  0  0
   -1.1460   -3.5839   34.5033 H   0  0  0  0  0  0  0  0  0  0  0  0
    3.3867   -4.6786   35.0178 H   0  0  0  0  0  0  0  0  0  0  0  0
    6.5173   -5.2827   36.7254 H   0  0  0  0  0  0  0  0  0  0  0  0
    5.6678   -5.4780   35.1882 H   0  0  0  0  0  0  0  0  0  0  0  0
    4.7513   -5.3032   36.7368 H   0  0  0  0  0  0  0  0  0  0  0  0
  1  2  1  0
  2  3  1  0
  3  4  2  0
  4  5  1  0
  5  6  2  0
  6  7  1  0
  7  8  1  0
  8  9  1  0
  9 10  1  0
 10 11  1  0
 11 12  1  0
 12 13  1  0
 13 14  1  0
 14 15  2  0
 15 16  1  0
 16 17  2  0
 16 18  2  0
 16 19  1  0
 19 20  1  0
 20 21  1  0
 21 22  1  0
 22 23  1  0
 23 24  1  0
 15 25  1  0
 25 26  2  0
 26 27  1  0
  6 28  1  0
 28 29  2  0
 29 30  1  0
 30 31  1  0
 29  3  1  0
 26  7  1  0
 27 10  1  0
 27 13  1  0
 24 19  1  0
  1 32  1  0
  1 33  1  0
  1 34  1  0
  4 35  1  0
  5 36  1  0
  7 37  1  0
  8 38  1  0
  8 39  1  0
  9 40  1  0
  9 41  1  0
 10 42  1  0
 11 43  1  0
 12 44  1  0
 13 45  1  0
 14 46  1  0
 20 47  1  0
 20 48  1  0
 21 49  1  0
 21 50  1  0
 22 51  1  0
 23 52  1  0
 23 53  1  0
 24 54  1  0
 24 55  1  0
 25 56  1  0
 28 57  1  0
 31 58  1  0
 31 59  1  0
 31 60  1  0
M  END
>  <Energy>  (975) 
192.63117153221685

>  <compound_id>  (975) 
3830

>  <target_id>  (975) 
1

>  <reference_id>  (975) 
40

>  <inspiration_ids>  (975) 
[132, 40]

>  <energy_score>  (975) 
32.26576968007407

>  <distance_score>  (975) 
2.0005648631377815

>  <path>  (975) 
/opt/xchem-fragalysis-2/maxwin/BulkDock/SCRATCH/505734/C3830-P40/C3830-P40.minimised.mol

>  <scratch_subdir>  (975) 
/opt/xchem-fragalysis-2/maxwin/BulkDock/SCRATCH/505734/C3830-P40

>  <fragmenstein_runtime>  (975) 
5.417543888092041

>  <fragmenstein_outcome>  (975) 
too moved

>  <fragmenstein_mode>  (975) 
expansion

>  <fragmenstein_error>  (975) 


$$$$
C2634-P132
     RDKit          3D

 58 62  0  0  0  0  0  0  0  0999 V2000
    6.3034   -0.9258   34.1684 C   0  0  0  0  0  0  0  0  0  0  0  0
    5.2128   -1.1377   35.0702 O   0  0  0  0  0  0  0  0  0  0  0  0
    4.2654   -1.9347   34.4860 C   0  0  0  0  0  0  0  0  0  0  0  0
    3.0699   -1.3222   34.1069 C   0  0  0  0  0  0  0  0  0  0  0  0
    2.0797   -2.0631   33.4594 C   0  0  0  0  0  0  0  0  0  0  0  0
    2.2871   -3.4175   33.1753 C   0  0  0  0  0  0  0  0  0  0  0  0
    1.2848   -4.2030   32.4248 C   0  0  0  0  0  0  0  0  0  0  0  0
    0.7666   -5.2710   33.0673 C   0  0  0  0  0  0  0  0  0  0  0  0
   -0.0543   -6.1496   32.3811 N   0  0  0  0  0  0  0  0  0  0  0  0
   -0.6807   -7.3154   32.7784 C   0  0  0  0  0  0  0  0  0  0  0  0
   -0.6758   -7.7499   34.0580 N   0  0  0  0  0  0  0  0  0  0  0  0
   -1.2147   -7.8978   31.7272 N   0  0  0  0  0  0  0  0  0  0  0  0
   -1.0029   -7.0862   30.6330 N   0  0  0  0  0  0  0  0  0  0  0  0
   -0.3468   -6.0172   31.0398 C   0  0  0  0  0  0  0  0  0  0  0  0
    0.0764   -4.8218   30.3843 C   0  0  0  0  0  0  0  0  0  0  0  0
    0.8590   -3.9148   31.0175 C   0  0  0  0  0  0  0  0  0  0  0  0
    1.3459   -2.7195   30.4743 N   0  0  0  0  0  0  0  0  0  0  0  0
    1.1168   -2.1337   29.1375 C   0  0  0  0  0  0  0  0  0  0  0  0
   -0.3129   -1.5013   28.8539 C   0  0  0  0  0  0  0  0  0  0  0  0
   -0.1436   -0.0514   28.6040 C   0  0  0  0  0  0  0  0  0  0  0  0
   -1.2403    1.0233   27.9151 S   0  0  0  0  0  0  0  0  0  0  0  0
   -0.1169    2.3153   28.0542 C   0  0  0  0  0  0  0  0  0  0  0  0
    1.0866    1.8998   28.5915 C   0  0  0  0  0  0  0  0  0  0  0  0
    1.0604    0.5133   28.9002 C   0  0  0  0  0  0  0  0  0  0  0  0
    2.0905   -0.3938   29.4788 C   0  0  0  0  0  0  0  0  0  0  0  0
    2.4157   -1.5661   28.5336 N   0  0  0  0  0  0  0  0  0  0  0  0
    3.7785   -1.9683   28.7057 C   0  0  0  0  0  0  0  0  0  0  0  0
    4.2637   -2.7928   29.4365 O   0  0  0  0  0  0  0  0  0  0  0  0
    4.6537   -1.1785   27.6972 C   0  0  0  0  0  0  0  0  0  0  0  0
    5.5958   -2.3182   26.6432 S   0  0  0  0  0  0  0  0  0  0  0  0
    5.7584   -0.1280   28.6232 Cl  0  0  0  0  0  0  0  0  0  0  0  0
    3.4809   -4.0295   33.5873 C   0  0  0  0  0  0  0  0  0  0  0  0
    4.4467   -3.3044   34.2819 C   0  0  0  0  0  0  0  0  0  0  0  0
    5.5517   -4.0068   34.6808 O   0  0  0  0  0  0  0  0  0  0  0  0
    5.7388   -3.9525   36.0948 C   0  0  0  0  0  0  0  0  0  0  0  0
    5.9534   -0.5899   33.1853 H   0  0  0  0  0  0  0  0  0  0  0  0
    6.9179   -1.8256   34.0683 H   0  0  0  0  0  0  0  0  0  0  0  0
    6.9326   -0.1358   34.5896 H   0  0  0  0  0  0  0  0  0  0  0  0
    2.9195   -0.2639   34.3017 H   0  0  0  0  0  0  0  0  0  0  0  0
    1.1570   -1.5732   33.1564 H   0  0  0  0  0  0  0  0  0  0  0  0
    1.0039   -5.5281   34.0925 H   0  0  0  0  0  0  0  0  0  0  0  0
   -0.7657   -7.0716   34.8081 H   0  0  0  0  0  0  0  0  0  0  0  0
   -1.2292   -8.5951   34.2390 H   0  0  0  0  0  0  0  0  0  0  0  0
   -0.2521   -4.6776   29.3625 H   0  0  0  0  0  0  0  0  0  0  0  0
    2.3527   -2.6977   30.6790 H   0  0  0  0  0  0  0  0  0  0  0  0
    1.0689   -3.0350   28.5089 H   0  0  0  0  0  0  0  0  0  0  0  0
   -0.9823   -1.6782   29.7031 H   0  0  0  0  0  0  0  0  0  0  0  0
   -0.7601   -1.9780   27.9785 H   0  0  0  0  0  0  0  0  0  0  0  0
   -0.3956    3.3094   27.7292 H   0  0  0  0  0  0  0  0  0  0  0  0
    1.9275    2.5653   28.7460 H   0  0  0  0  0  0  0  0  0  0  0  0
    1.9783   -0.5893   30.5543 H   0  0  0  0  0  0  0  0  0  0  0  0
    3.0108    0.2096   29.4835 H   0  0  0  0  0  0  0  0  0  0  0  0
    4.0394   -0.5363   27.0590 H   0  0  0  0  0  0  0  0  0  0  0  0
    4.5420   -3.0233   26.2130 H   0  0  0  0  0  0  0  0  0  0  0  0
    3.6692   -5.0782   33.3721 H   0  0  0  0  0  0  0  0  0  0  0  0
    4.7896   -3.9924   36.6419 H   0  0  0  0  0  0  0  0  0  0  0  0
    6.3071   -3.0614   36.3760 H   0  0  0  0  0  0  0  0  0  0  0  0
    6.3288   -4.8273   36.3849 H   0  0  0  0  0  0  0  0  0  0  0  0
  1  2  1  0
  2  3  1  0
  3  4  2  0
  4  5  1  0
  5  6  2  0
  6  7  1  0
  7  8  2  0
  8  9  1  0
  9 10  1  0
 10 11  1  0
 10 12  2  0
 12 13  1  0
 13 14  2  0
 14 15  1  0
 15 16  2  0
 16 17  1  0
 17 18  1  0
 18 19  1  0
 19 20  1  0
 20 21  1  0
 21 22  1  0
 22 23  2  0
 23 24  1  0
 24 25  1  0
 25 26  1  0
 26 27  1  0
 27 28  2  0
 27 29  1  0
 29 30  1  0
 29 31  1  0
  6 32  1  0
 32 33  2  0
 33 34  1  0
 34 35  1  0
 33  3  1  0
 16  7  1  0
 26 18  1  0
 14  9  1  0
 24 20  2  0
  1 36  1  0
  1 37  1  0
  1 38  1  0
  4 39  1  0
  5 40  1  0
  8 41  1  0
 11 42  1  0
 11 43  1  0
 15 44  1  0
 17 45  1  0
 18 46  1  0
 19 47  1  0
 19 48  1  0
 22 49  1  0
 23 50  1  0
 25 51  1  0
 25 52  1  0
 29 53  1  0
 30 54  1  0
 32 55  1  0
 35 56  1  0
 35 57  1  0
 35 58  1  0
M  END
>  <Energy>  (976) 
168.83939102904341

>  <compound_id>  (976) 
2634

>  <target_id>  (976) 
1

>  <reference_id>  (976) 
132

>  <inspiration_ids>  (976) 
[132, 44]

>  <energy_score>  (976) 
-18.18685805766927

>  <distance_score>  (976) 
2.855264844896197

>  <path>  (976) 
/opt/xchem-fragalysis-2/maxwin/BulkDock/SCRATCH/505734/C2634-P132/C2634-P132.minimised.mol

>  <scratch_subdir>  (976) 
/opt/xchem-fragalysis-2/maxwin/BulkDock/SCRATCH/505734/C2634-P132

>  <fragmenstein_runtime>  (976) 
9.490851640701294

>  <fragmenstein_outcome>  (976) 
too moved

>  <fragmenstein_mode>  (976) 
expansion

>  <fragmenstein_error>  (976) 


$$$$
C2634-P44
     RDKit          3D

 58 62  0  0  0  0  0  0  0  0999 V2000
    5.9629   -0.8376   34.2613 C   0  0  0  0  0  0  0  0  0  0  0  0
    4.7328   -0.9176   34.9834 O   0  0  0  0  0  0  0  0  0  0  0  0
    3.8265   -1.7725   34.4168 C   0  0  0  0  0  0  0  0  0  0  0  0
    2.5285   -1.2741   34.2714 C   0  0  0  0  0  0  0  0  0  0  0  0
    1.5268   -2.0558   33.6870 C   0  0  0  0  0  0  0  0  0  0  0  0
    1.8255   -3.3405   33.2279 C   0  0  0  0  0  0  0  0  0  0  0  0
    0.8201   -4.1891   32.5612 C   0  0  0  0  0  0  0  0  0  0  0  0
    0.3691   -5.2431   33.2767 C   0  0  0  0  0  0  0  0  0  0  0  0
   -0.3344   -6.2532   32.6344 N   0  0  0  0  0  0  0  0  0  0  0  0
   -0.9361   -7.4058   33.1013 C   0  0  0  0  0  0  0  0  0  0  0  0
   -1.0129   -7.7277   34.4130 N   0  0  0  0  0  0  0  0  0  0  0  0
   -1.4200   -8.0854   32.0830 N   0  0  0  0  0  0  0  0  0  0  0  0
   -1.1634   -7.3818   30.9285 N   0  0  0  0  0  0  0  0  0  0  0  0
   -0.5331   -6.2776   31.2692 C   0  0  0  0  0  0  0  0  0  0  0  0
   -0.1357   -5.1332   30.5288 C   0  0  0  0  0  0  0  0  0  0  0  0
    0.4344   -4.0623   31.1273 C   0  0  0  0  0  0  0  0  0  0  0  0
    0.6499   -2.8330   30.5090 N   0  0  0  0  0  0  0  0  0  0  0  0
    0.5812   -2.4756   29.0815 C   0  0  0  0  0  0  0  0  0  0  0  0
   -0.5302   -1.4291   28.6868 C   0  0  0  0  0  0  0  0  0  0  0  0
    0.1324   -0.1267   28.5168 C   0  0  0  0  0  0  0  0  0  0  0  0
   -0.5845    1.3170   28.0265 S   0  0  0  0  0  0  0  0  0  0  0  0
    0.9351    2.1184   28.0931 C   0  0  0  0  0  0  0  0  0  0  0  0
    1.9579    1.2678   28.4713 C   0  0  0  0  0  0  0  0  0  0  0  0
    1.4809   -0.0520   28.7127 C   0  0  0  0  0  0  0  0  0  0  0  0
    2.2129   -1.2910   29.1472 C   0  0  0  0  0  0  0  0  0  0  0  0
    1.9170   -2.5602   28.3310 N   0  0  0  0  0  0  0  0  0  0  0  0
    3.0041   -3.4887   28.4585 C   0  0  0  0  0  0  0  0  0  0  0  0
    3.1843   -4.3814   29.2489 O   0  0  0  0  0  0  0  0  0  0  0  0
    4.0115   -3.2420   27.3164 C   0  0  0  0  0  0  0  0  0  0  0  0
    4.0228   -4.6867   26.2132 S   0  0  0  0  0  0  0  0  0  0  0  0
    5.6257   -2.9873   28.0270 Cl  0  0  0  0  0  0  0  0  0  0  0  0
    3.1239   -3.8473   33.3969 C   0  0  0  0  0  0  0  0  0  0  0  0
    4.1031   -3.0861   34.0328 C   0  0  0  0  0  0  0  0  0  0  0  0
    5.3246   -3.6732   34.2288 O   0  0  0  0  0  0  0  0  0  0  0  0
    5.4260   -4.1549   35.5707 C   0  0  0  0  0  0  0  0  0  0  0  0
    5.8273   -0.9608   33.1805 H   0  0  0  0  0  0  0  0  0  0  0  0
    6.6805   -1.5655   34.6497 H   0  0  0  0  0  0  0  0  0  0  0  0
    6.3807    0.1596   34.4315 H   0  0  0  0  0  0  0  0  0  0  0  0
    2.3006   -0.2666   34.6110 H   0  0  0  0  0  0  0  0  0  0  0  0
    0.5218   -1.6528   33.5910 H   0  0  0  0  0  0  0  0  0  0  0  0
    0.5890   -5.3920   34.3260 H   0  0  0  0  0  0  0  0  0  0  0  0
   -0.2727   -7.4362   35.0396 H   0  0  0  0  0  0  0  0  0  0  0  0
   -1.2394   -8.7221   34.5707 H   0  0  0  0  0  0  0  0  0  0  0  0
   -0.4241   -5.1147   29.4903 H   0  0  0  0  0  0  0  0  0  0  0  0
    0.6651   -2.0498   31.1544 H   0  0  0  0  0  0  0  0  0  0  0  0
    0.1278   -3.3640   28.6270 H   0  0  0  0  0  0  0  0  0  0  0  0
   -1.3124   -1.3913   29.4529 H   0  0  0  0  0  0  0  0  0  0  0  0
   -0.9953   -1.7231   27.7405 H   0  0  0  0  0  0  0  0  0  0  0  0
    0.9991    3.1699   27.8462 H   0  0  0  0  0  0  0  0  0  0  0  0
    2.9889    1.5886   28.5622 H   0  0  0  0  0  0  0  0  0  0  0  0
    2.3438   -1.4108   30.2309 H   0  0  0  0  0  0  0  0  0  0  0  0
    3.2569   -1.0696   28.8668 H   0  0  0  0  0  0  0  0  0  0  0  0
    3.7633   -2.3457   26.7440 H   0  0  0  0  0  0  0  0  0  0  0  0
    4.3098   -5.5713   27.1811 H   0  0  0  0  0  0  0  0  0  0  0  0
    3.3777   -4.8423   33.0381 H   0  0  0  0  0  0  0  0  0  0  0  0
    4.6366   -4.8825   35.7906 H   0  0  0  0  0  0  0  0  0  0  0  0
    5.3984   -3.3328   36.2937 H   0  0  0  0  0  0  0  0  0  0  0  0
    6.3907   -4.6611   35.6713 H   0  0  0  0  0  0  0  0  0  0  0  0
  1  2  1  0
  2  3  1  0
  3  4  2  0
  4  5  1  0
  5  6  2  0
  6  7  1  0
  7  8  2  0
  8  9  1  0
  9 10  1  0
 10 11  1  0
 10 12  2  0
 12 13  1  0
 13 14  2  0
 14 15  1  0
 15 16  2  0
 16 17  1  0
 17 18  1  0
 18 19  1  0
 19 20  1  0
 20 21  1  0
 21 22  1  0
 22 23  2  0
 23 24  1  0
 24 25  1  0
 25 26  1  0
 26 27  1  0
 27 28  2  0
 27 29  1  0
 29 30  1  0
 29 31  1  0
  6 32  1  0
 32 33  2  0
 33 34  1  0
 34 35  1  0
 33  3  1  0
 16  7  1  0
 26 18  1  0
 14  9  1  0
 24 20  2  0
  1 36  1  0
  1 37  1  0
  1 38  1  0
  4 39  1  0
  5 40  1  0
  8 41  1  0
 11 42  1  0
 11 43  1  0
 15 44  1  0
 17 45  1  0
 18 46  1  0
 19 47  1  0
 19 48  1  0
 22 49  1  0
 23 50  1  0
 25 51  1  0
 25 52  1  0
 29 53  1  0
 30 54  1  0
 32 55  1  0
 35 56  1  0
 35 57  1  0
 35 58  1  0
M  END
>  <Energy>  (977) 
170.01725733308794

>  <compound_id>  (977) 
2634

>  <target_id>  (977) 
1

>  <reference_id>  (977) 
44

>  <inspiration_ids>  (977) 
[132, 44]

>  <energy_score>  (977) 
-17.00899175362713

>  <distance_score>  (977) 
2.952274984488289

>  <path>  (977) 
/opt/xchem-fragalysis-2/maxwin/BulkDock/SCRATCH/505734/C2634-P44/C2634-P44.minimised.mol

>  <scratch_subdir>  (977) 
/opt/xchem-fragalysis-2/maxwin/BulkDock/SCRATCH/505734/C2634-P44

>  <fragmenstein_runtime>  (977) 
12.472131967544556

>  <fragmenstein_outcome>  (977) 
too moved

>  <fragmenstein_mode>  (977) 
expansion

>  <fragmenstein_error>  (977) 


$$$$
C3833-P132
     RDKit          3D

 48 51  0  0  0  0  0  0  0  0999 V2000
    6.1902   -0.7863   33.7203 C   0  0  0  0  0  0  0  0  0  0  0  0
    5.4947   -1.7282   34.5251 O   0  0  0  0  0  0  0  0  0  0  0  0
    4.4717   -2.4149   33.9357 C   0  0  0  0  0  0  0  0  0  0  0  0
    3.9353   -2.1403   32.6840 C   0  0  0  0  0  0  0  0  0  0  0  0
    2.8809   -2.9154   32.1752 C   0  0  0  0  0  0  0  0  0  0  0  0
    2.2795   -3.9480   32.9115 C   0  0  0  0  0  0  0  0  0  0  0  0
    1.1661   -4.7785   32.3398 C   0  0  0  0  0  0  0  0  0  0  0  0
    0.5897   -5.7498   33.0898 C   0  0  0  0  0  0  0  0  0  0  0  0
   -0.2515   -6.6868   32.4977 N   0  0  0  0  0  0  0  0  0  0  0  0
   -1.0436   -7.6828   33.0295 C   0  0  0  0  0  0  0  0  0  0  0  0
   -1.2412   -7.8511   34.3572 N   0  0  0  0  0  0  0  0  0  0  0  0
   -1.5581   -8.3911   32.0458 N   0  0  0  0  0  0  0  0  0  0  0  0
   -1.1769   -7.8284   30.8503 N   0  0  0  0  0  0  0  0  0  0  0  0
   -0.4286   -6.7862   31.1324 C   0  0  0  0  0  0  0  0  0  0  0  0
    0.0195   -5.6944   30.3485 C   0  0  0  0  0  0  0  0  0  0  0  0
    0.6095   -4.6412   30.9585 C   0  0  0  0  0  0  0  0  0  0  0  0
    0.1250   -3.2777   30.5026 C   0  0  0  0  0  0  0  0  0  0  0  0
    0.9036   -2.6815   29.4025 N   0  0  0  0  0  0  0  0  0  0  0  0
    0.1525   -1.2554   28.7706 S   0  0  0  0  0  0  0  0  0  0  0  0
    1.1666   -0.4603   28.1246 O   0  0  0  0  0  0  0  0  0  0  0  0
   -1.0625   -1.6976   28.1362 O   0  0  0  0  0  0  0  0  0  0  0  0
   -0.4441   -0.3749   30.1598 C   0  0  0  0  0  0  0  0  0  0  0  0
   -1.5918   -0.5227   30.9122 C   0  0  0  0  0  0  0  0  0  0  0  0
   -1.4811    0.2080   32.1145 C   0  0  0  0  0  0  0  0  0  0  0  0
   -0.3881    0.9508   32.2623 N   0  0  0  0  0  0  0  0  0  0  0  0
    0.5755    0.7404   30.9183 S   0  0  0  0  0  0  0  0  0  0  0  0
    2.8401   -4.2109   34.1725 C   0  0  0  0  0  0  0  0  0  0  0  0
    3.9322   -3.4803   34.6572 C   0  0  0  0  0  0  0  0  0  0  0  0
    4.4245   -3.8378   35.8885 O   0  0  0  0  0  0  0  0  0  0  0  0
    5.5609   -4.6894   35.7331 C   0  0  0  0  0  0  0  0  0  0  0  0
    5.5449    0.0588   33.4591 H   0  0  0  0  0  0  0  0  0  0  0  0
    7.0257   -0.3959   34.3093 H   0  0  0  0  0  0  0  0  0  0  0  0
    6.6070   -1.2582   32.8242 H   0  0  0  0  0  0  0  0  0  0  0  0
    4.3187   -1.3389   32.0597 H   0  0  0  0  0  0  0  0  0  0  0  0
    2.5704   -2.6778   31.1652 H   0  0  0  0  0  0  0  0  0  0  0  0
    0.7721   -5.9114   34.1408 H   0  0  0  0  0  0  0  0  0  0  0  0
   -1.5329   -8.8123   34.5964 H   0  0  0  0  0  0  0  0  0  0  0  0
   -0.5578   -7.5157   35.0241 H   0  0  0  0  0  0  0  0  0  0  0  0
   -0.4691   -5.5608   29.3928 H   0  0  0  0  0  0  0  0  0  0  0  0
    0.1335   -2.6112   31.3700 H   0  0  0  0  0  0  0  0  0  0  0  0
   -0.9243   -3.3725   30.1909 H   0  0  0  0  0  0  0  0  0  0  0  0
    1.0088   -3.3134   28.6070 H   0  0  0  0  0  0  0  0  0  0  0  0
   -2.3900   -1.1992   30.6596 H   0  0  0  0  0  0  0  0  0  0  0  0
   -2.1997    0.2203   32.9240 H   0  0  0  0  0  0  0  0  0  0  0  0
    2.4753   -5.0019   34.8176 H   0  0  0  0  0  0  0  0  0  0  0  0
    5.3076   -5.5888   35.1604 H   0  0  0  0  0  0  0  0  0  0  0  0
    6.3962   -4.1613   35.2617 H   0  0  0  0  0  0  0  0  0  0  0  0
    5.8811   -5.0038   36.7310 H   0  0  0  0  0  0  0  0  0  0  0  0
  1  2  1  0
  2  3  1  0
  3  4  2  0
  4  5  1  0
  5  6  2  0
  6  7  1  0
  7  8  2  0
  8  9  1  0
  9 10  1  0
 10 11  1  0
 10 12  2  0
 12 13  1  0
 13 14  2  0
 14 15  1  0
 15 16  2  0
 16 17  1  0
 17 18  1  0
 18 19  1  0
 19 20  2  0
 19 21  2  0
 19 22  1  0
 22 23  2  0
 23 24  1  0
 24 25  2  0
 25 26  1  0
  6 27  1  0
 27 28  2  0
 28 29  1  0
 29 30  1  0
 28  3  1  0
 16  7  1  0
 26 22  1  0
 14  9  1  0
  1 31  1  0
  1 32  1  0
  1 33  1  0
  4 34  1  0
  5 35  1  0
  8 36  1  0
 11 37  1  0
 11 38  1  0
 15 39  1  0
 17 40  1  0
 17 41  1  0
 18 42  1  0
 23 43  1  0
 24 44  1  0
 27 45  1  0
 30 46  1  0
 30 47  1  0
 30 48  1  0
M  END
>  <Energy>  (978) 
11.934521455276945

>  <compound_id>  (978) 
3833

>  <target_id>  (978) 
1

>  <reference_id>  (978) 
132

>  <inspiration_ids>  (978) 
[132, 59]

>  <energy_score>  (978) 
-235.02557295410594

>  <distance_score>  (978) 
0.8576108134053244

>  <path>  (978) 
/opt/xchem-fragalysis-2/maxwin/BulkDock/SCRATCH/505734/C3833-P132/C3833-P132.minimised.mol

>  <scratch_subdir>  (978) 
/opt/xchem-fragalysis-2/maxwin/BulkDock/SCRATCH/505734/C3833-P132

>  <fragmenstein_runtime>  (978) 
1.6214520931243896

>  <fragmenstein_outcome>  (978) 
acceptable

>  <fragmenstein_mode>  (978) 
expansion

>  <fragmenstein_error>  (978) 


$$$$
C3833-P59
     RDKit          3D

 48 51  0  0  0  0  0  0  0  0999 V2000
    6.2874   -1.1585   33.9742 C   0  0  0  0  0  0  0  0  0  0  0  0
    5.1503   -1.2402   34.8346 O   0  0  0  0  0  0  0  0  0  0  0  0
    4.2351   -2.1220   34.3214 C   0  0  0  0  0  0  0  0  0  0  0  0
    3.1434   -1.5841   33.6464 C   0  0  0  0  0  0  0  0  0  0  0  0
    2.1877   -2.4358   33.1083 C   0  0  0  0  0  0  0  0  0  0  0  0
    2.3430   -3.8214   33.2047 C   0  0  0  0  0  0  0  0  0  0  0  0
    1.4073   -4.7050   32.4935 C   0  0  0  0  0  0  0  0  0  0  0  0
    0.6311   -5.5284   33.2360 C   0  0  0  0  0  0  0  0  0  0  0  0
   -0.2468   -6.4089   32.6083 N   0  0  0  0  0  0  0  0  0  0  0  0
   -1.0824   -7.3970   33.0970 C   0  0  0  0  0  0  0  0  0  0  0  0
   -1.2313   -7.6768   34.4129 N   0  0  0  0  0  0  0  0  0  0  0  0
   -1.6566   -8.0169   32.0864 N   0  0  0  0  0  0  0  0  0  0  0  0
   -1.2377   -7.4280   30.9164 N   0  0  0  0  0  0  0  0  0  0  0  0
   -0.4003   -6.4655   31.2363 C   0  0  0  0  0  0  0  0  0  0  0  0
    0.3653   -5.5613   30.4593 C   0  0  0  0  0  0  0  0  0  0  0  0
    1.2769   -4.7374   31.0185 C   0  0  0  0  0  0  0  0  0  0  0  0
    2.2547   -3.9882   30.1229 C   0  0  0  0  0  0  0  0  0  0  0  0
    2.0058   -2.5401   30.0455 N   0  0  0  0  0  0  0  0  0  0  0  0
    0.9334   -1.9571   28.8639 S   0  0  0  0  0  0  0  0  0  0  0  0
    1.6089   -0.8475   28.2348 O   0  0  0  0  0  0  0  0  0  0  0  0
    0.4348   -3.1049   28.1465 O   0  0  0  0  0  0  0  0  0  0  0  0
   -0.4157   -1.3108   29.7613 C   0  0  0  0  0  0  0  0  0  0  0  0
   -1.7191   -1.7058   29.9619 C   0  0  0  0  0  0  0  0  0  0  0  0
   -2.2935   -0.9414   31.0122 C   0  0  0  0  0  0  0  0  0  0  0  0
   -1.5399    0.0105   31.5566 N   0  0  0  0  0  0  0  0  0  0  0  0
   -0.0957    0.0483   30.7357 S   0  0  0  0  0  0  0  0  0  0  0  0
    3.4160   -4.3532   33.9351 C   0  0  0  0  0  0  0  0  0  0  0  0
    4.3502   -3.5037   34.5297 C   0  0  0  0  0  0  0  0  0  0  0  0
    5.4031   -3.9160   35.2986 O   0  0  0  0  0  0  0  0  0  0  0  0
    5.3917   -5.2599   35.7567 C   0  0  0  0  0  0  0  0  0  0  0  0
    5.9978   -0.8591   32.9605 H   0  0  0  0  0  0  0  0  0  0  0  0
    6.9547   -0.3898   34.3753 H   0  0  0  0  0  0  0  0  0  0  0  0
    6.8397   -2.1036   33.9481 H   0  0  0  0  0  0  0  0  0  0  0  0
    3.0366   -0.5071   33.5511 H   0  0  0  0  0  0  0  0  0  0  0  0
    1.3285   -2.0107   32.5971 H   0  0  0  0  0  0  0  0  0  0  0  0
    0.6527   -5.5520   34.3188 H   0  0  0  0  0  0  0  0  0  0  0  0
   -1.5073   -8.6577   34.5772 H   0  0  0  0  0  0  0  0  0  0  0  0
   -0.5042   -7.4154   35.0677 H   0  0  0  0  0  0  0  0  0  0  0  0
    0.2372   -5.5681   29.3929 H   0  0  0  0  0  0  0  0  0  0  0  0
    2.3015   -4.4216   29.1165 H   0  0  0  0  0  0  0  0  0  0  0  0
    3.2708   -4.1301   30.5144 H   0  0  0  0  0  0  0  0  0  0  0  0
    2.8650   -1.9902   29.9785 H   0  0  0  0  0  0  0  0  0  0  0  0
   -2.1845   -2.5277   29.4336 H   0  0  0  0  0  0  0  0  0  0  0  0
   -3.2855   -1.0734   31.4211 H   0  0  0  0  0  0  0  0  0  0  0  0
    3.5158   -5.4300   34.0127 H   0  0  0  0  0  0  0  0  0  0  0  0
    4.4615   -5.4955   36.2847 H   0  0  0  0  0  0  0  0  0  0  0  0
    5.5616   -5.9556   34.9286 H   0  0  0  0  0  0  0  0  0  0  0  0
    6.2167   -5.3796   36.4654 H   0  0  0  0  0  0  0  0  0  0  0  0
  1  2  1  0
  2  3  1  0
  3  4  2  0
  4  5  1  0
  5  6  2  0
  6  7  1  0
  7  8  2  0
  8  9  1  0
  9 10  1  0
 10 11  1  0
 10 12  2  0
 12 13  1  0
 13 14  2  0
 14 15  1  0
 15 16  2  0
 16 17  1  0
 17 18  1  0
 18 19  1  0
 19 20  2  0
 19 21  2  0
 19 22  1  0
 22 23  2  0
 23 24  1  0
 24 25  2  0
 25 26  1  0
  6 27  1  0
 27 28  2  0
 28 29  1  0
 29 30  1  0
 28  3  1  0
 16  7  1  0
 26 22  1  0
 14  9  1  0
  1 31  1  0
  1 32  1  0
  1 33  1  0
  4 34  1  0
  5 35  1  0
  8 36  1  0
 11 37  1  0
 11 38  1  0
 15 39  1  0
 17 40  1  0
 17 41  1  0
 18 42  1  0
 23 43  1  0
 24 44  1  0
 27 45  1  0
 30 46  1  0
 30 47  1  0
 30 48  1  0
M  END
>  <Energy>  (979) 
-12.22720343682311

>  <compound_id>  (979) 
3833

>  <target_id>  (979) 
1

>  <reference_id>  (979) 
59

>  <inspiration_ids>  (979) 
[132, 59]

>  <energy_score>  (979) 
-259.1872978462068

>  <distance_score>  (979) 
0.7257091394206477

>  <path>  (979) 
/opt/xchem-fragalysis-2/maxwin/BulkDock/SCRATCH/505734/C3833-P59/C3833-P59.minimised.mol

>  <scratch_subdir>  (979) 
/opt/xchem-fragalysis-2/maxwin/BulkDock/SCRATCH/505734/C3833-P59

>  <fragmenstein_runtime>  (979) 
2.3984670639038086

>  <fragmenstein_outcome>  (979) 
acceptable

>  <fragmenstein_mode>  (979) 
expansion

>  <fragmenstein_error>  (979) 


$$$$
C3833-P132
     RDKit          2D

  0  0  0  0  0  0  0  0  0  0999 V2000
M  END
>  <compound_id>  (980) 
3833

>  <target_id>  (980) 
1

>  <reference_id>  (980) 
132

>  <inspiration_ids>  (980) 
[132, 70]

>  <energy_score>  (980) 
nan

>  <distance_score>  (980) 
nan

>  <path>  (980) 
/opt/xchem-fragalysis-2/maxwin/BulkDock/SCRATCH/505734/C3833-P132/C3833-P132.minimised.mol

>  <scratch_subdir>  (980) 
/opt/xchem-fragalysis-2/maxwin/BulkDock/SCRATCH/505734/C3833-P132

>  <fragmenstein_runtime>  (980) 
0.4588768482208252

>  <fragmenstein_outcome>  (980) 
too distant

>  <fragmenstein_mode>  (980) 
expansion

>  <fragmenstein_error>  (980) 
DistanceError: hit1

$$$$
C3836-P132
     RDKit          3D

 52 55  0  0  0  0  0  0  0  0999 V2000
    4.9379   -1.3203   32.3655 C   0  0  0  0  0  0  0  0  0  0  0  0
    4.0083   -1.8576   31.4318 O   0  0  0  0  0  0  0  0  0  0  0  0
    3.4315   -3.0696   31.7014 C   0  0  0  0  0  0  0  0  0  0  0  0
    2.2934   -3.3346   30.9172 C   0  0  0  0  0  0  0  0  0  0  0  0
    1.5269   -4.5039   31.0786 C   0  0  0  0  0  0  0  0  0  0  0  0
    1.9029   -5.4627   32.0161 C   0  0  0  0  0  0  0  0  0  0  0  0
    0.9783   -6.5744   32.4317 C   0  0  0  0  0  0  0  0  0  0  0  0
    0.9291   -6.6617   33.7879 C   0  0  0  0  0  0  0  0  0  0  0  0
   -0.1797   -7.1759   34.4181 N   0  0  0  0  0  0  0  0  0  0  0  0
   -0.4664   -7.3809   35.7456 C   0  0  0  0  0  0  0  0  0  0  0  0
    0.4391   -7.2635   36.7403 N   0  0  0  0  0  0  0  0  0  0  0  0
   -1.7270   -7.7160   35.8536 N   0  0  0  0  0  0  0  0  0  0  0  0
   -2.2724   -7.7719   34.6071 N   0  0  0  0  0  0  0  0  0  0  0  0
   -1.3308   -7.4650   33.7484 C   0  0  0  0  0  0  0  0  0  0  0  0
   -1.2915   -7.4211   32.3403 C   0  0  0  0  0  0  0  0  0  0  0  0
   -0.1314   -7.2793   31.6572 C   0  0  0  0  0  0  0  0  0  0  0  0
   -0.1178   -7.5963   30.1484 C   0  0  0  0  0  0  0  0  0  0  0  0
   -0.2316   -9.0414   29.4943 N   0  0  0  0  0  0  0  0  0  0  0  0
   -1.2281  -10.2649   30.1828 S   0  0  0  0  0  0  0  0  0  0  0  0
   -0.5082  -11.2738   30.8345 O   0  0  0  0  0  0  0  0  0  0  0  0
   -2.0939   -9.4795   31.0199 O   0  0  0  0  0  0  0  0  0  0  0  0
   -2.3981  -11.6585   29.0345 C   0  0  0  0  0  0  0  0  0  0  0  0
   -2.6094  -11.8994   27.6080 C   0  0  0  0  0  0  0  0  0  0  0  0
   -2.6134  -13.2461   27.3289 C   0  0  0  0  0  0  0  0  0  0  0  0
   -2.1216  -13.7911   28.6759 N   0  0  0  0  0  0  0  0  0  0  0  0
   -1.9653  -15.2245   29.0257 C   0  0  0  0  0  0  0  0  0  0  0  0
   -2.6509  -12.8635   29.5368 N   0  0  0  0  0  0  0  0  0  0  0  0
    3.0875   -5.1999   32.7545 C   0  0  0  0  0  0  0  0  0  0  0  0
    3.8375   -4.0207   32.6360 C   0  0  0  0  0  0  0  0  0  0  0  0
    4.9720   -3.8120   33.3740 O   0  0  0  0  0  0  0  0  0  0  0  0
    5.0035   -4.3708   34.6851 C   0  0  0  0  0  0  0  0  0  0  0  0
    5.1126   -0.2754   32.0897 H   0  0  0  0  0  0  0  0  0  0  0  0
    4.5376   -1.3239   33.3845 H   0  0  0  0  0  0  0  0  0  0  0  0
    5.8999   -1.8368   32.2987 H   0  0  0  0  0  0  0  0  0  0  0  0
    1.9675   -2.5852   30.1959 H   0  0  0  0  0  0  0  0  0  0  0  0
    0.6060   -4.5989   30.5090 H   0  0  0  0  0  0  0  0  0  0  0  0
    1.6053   -6.1855   34.4858 H   0  0  0  0  0  0  0  0  0  0  0  0
    1.3979   -7.5378   36.5662 H   0  0  0  0  0  0  0  0  0  0  0  0
    0.1198   -7.6704   37.6211 H   0  0  0  0  0  0  0  0  0  0  0  0
   -2.2326   -7.6421   31.8681 H   0  0  0  0  0  0  0  0  0  0  0  0
   -0.9260   -7.0159   29.6917 H   0  0  0  0  0  0  0  0  0  0  0  0
    0.8248   -7.1982   29.7570 H   0  0  0  0  0  0  0  0  0  0  0  0
   -0.4019   -9.0136   28.4964 H   0  0  0  0  0  0  0  0  0  0  0  0
   -2.4003  -11.2956   26.7700 H   0  0  0  0  0  0  0  0  0  0  0  0
   -2.5740  -13.8686   26.4636 H   0  0  0  0  0  0  0  0  0  0  0  0
   -2.3105  -15.8500   28.1996 H   0  0  0  0  0  0  0  0  0  0  0  0
   -0.9266  -15.4425   29.1841 H   0  0  0  0  0  0  0  0  0  0  0  0
   -2.5312  -15.4272   29.9397 H   0  0  0  0  0  0  0  0  0  0  0  0
    3.4315   -5.9418   33.4684 H   0  0  0  0  0  0  0  0  0  0  0  0
    5.2640   -5.4329   34.6432 H   0  0  0  0  0  0  0  0  0  0  0  0
    4.0571   -4.2177   35.2151 H   0  0  0  0  0  0  0  0  0  0  0  0
    5.7892   -3.8569   35.2470 H   0  0  0  0  0  0  0  0  0  0  0  0
  1  2  1  0
  2  3  1  0
  3  4  2  0
  4  5  1  0
  5  6  2  0
  6  7  1  0
  7  8  2  0
  8  9  1  0
  9 10  1  0
 10 11  1  0
 10 12  2  0
 12 13  1  0
 13 14  2  0
 14 15  1  0
 15 16  2  0
 16 17  1  0
 17 18  1  0
 18 19  1  0
 19 20  2  0
 19 21  2  0
 19 22  1  0
 22 23  1  0
 23 24  2  0
 24 25  1  0
 25 26  1  0
 25 27  1  0
  6 28  1  0
 28 29  2  0
 29 30  1  0
 30 31  1  0
 29  3  1  0
 16  7  1  0
 27 22  2  0
 14  9  1  0
  1 32  1  0
  1 33  1  0
  1 34  1  0
  4 35  1  0
  5 36  1  0
  8 37  1  0
 11 38  1  0
 11 39  1  0
 15 40  1  0
 17 41  1  0
 17 42  1  0
 18 43  1  0
 23 44  1  0
 24 45  1  0
 26 46  1  0
 26 47  1  0
 26 48  1  0
 28 49  1  0
 31 50  1  0
 31 51  1  0
 31 52  1  0
M  END
>  <Energy>  (981) 
235.96578380114653

>  <compound_id>  (981) 
3836

>  <target_id>  (981) 
1

>  <reference_id>  (981) 
132

>  <inspiration_ids>  (981) 
[132, 116]

>  <energy_score>  (981) 
86.51746734243864

>  <distance_score>  (981) 
2.3392329503677565

>  <path>  (981) 
/opt/xchem-fragalysis-2/maxwin/BulkDock/SCRATCH/505734/C3836-P132/C3836-P132.minimised.mol

>  <scratch_subdir>  (981) 
/opt/xchem-fragalysis-2/maxwin/BulkDock/SCRATCH/505734/C3836-P132

>  <fragmenstein_runtime>  (981) 
10.417925357818604

>  <fragmenstein_outcome>  (981) 
too moved

>  <fragmenstein_mode>  (981) 
expansion

>  <fragmenstein_error>  (981) 


$$$$
C3836-P116
     RDKit          3D

 52 55  0  0  0  0  0  0  0  0999 V2000
    6.6671   -2.0448   34.6255 C   0  0  0  0  0  0  0  0  0  0  0  0
    6.0758   -3.1643   35.2770 O   0  0  0  0  0  0  0  0  0  0  0  0
    4.7711   -3.4682   35.0037 C   0  0  0  0  0  0  0  0  0  0  0  0
    4.0490   -2.8146   34.0067 C   0  0  0  0  0  0  0  0  0  0  0  0
    2.7168   -3.1435   33.7758 C   0  0  0  0  0  0  0  0  0  0  0  0
    2.0614   -4.1492   34.5137 C   0  0  0  0  0  0  0  0  0  0  0  0
    0.6238   -4.3700   34.2512 C   0  0  0  0  0  0  0  0  0  0  0  0
   -0.1016   -3.2514   34.4937 C   0  0  0  0  0  0  0  0  0  0  0  0
   -1.2294   -3.0058   33.7241 N   0  0  0  0  0  0  0  0  0  0  0  0
   -2.1012   -1.9461   33.6690 C   0  0  0  0  0  0  0  0  0  0  0  0
   -2.1451   -0.9962   34.6268 N   0  0  0  0  0  0  0  0  0  0  0  0
   -2.8346   -2.0403   32.5804 N   0  0  0  0  0  0  0  0  0  0  0  0
   -2.5307   -3.2315   31.9602 N   0  0  0  0  0  0  0  0  0  0  0  0
   -1.6126   -3.8181   32.6923 C   0  0  0  0  0  0  0  0  0  0  0  0
   -1.0875   -5.1198   32.6936 C   0  0  0  0  0  0  0  0  0  0  0  0
   -0.0113   -5.4409   33.4314 C   0  0  0  0  0  0  0  0  0  0  0  0
    0.4461   -6.8783   33.4061 C   0  0  0  0  0  0  0  0  0  0  0  0
    0.3176   -7.5150   32.0644 N   0  0  0  0  0  0  0  0  0  0  0  0
   -0.8393   -8.7519   31.8009 S   0  0  0  0  0  0  0  0  0  0  0  0
   -1.3335   -9.2809   33.0553 O   0  0  0  0  0  0  0  0  0  0  0  0
   -1.7929   -8.1309   30.8952 O   0  0  0  0  0  0  0  0  0  0  0  0
   -0.3575  -10.1870   30.8641 C   0  0  0  0  0  0  0  0  0  0  0  0
   -0.2918  -10.2231   29.4474 C   0  0  0  0  0  0  0  0  0  0  0  0
   -0.0221  -11.5240   29.1015 C   0  0  0  0  0  0  0  0  0  0  0  0
    0.0653  -12.1947   30.2821 N   0  0  0  0  0  0  0  0  0  0  0  0
    0.4148  -13.5856   30.4540 C   0  0  0  0  0  0  0  0  0  0  0  0
   -0.2186  -11.4331   31.3582 N   0  0  0  0  0  0  0  0  0  0  0  0
    2.7784   -4.8070   35.5006 C   0  0  0  0  0  0  0  0  0  0  0  0
    4.1269   -4.4750   35.7542 C   0  0  0  0  0  0  0  0  0  0  0  0
    4.6419   -5.2282   36.7765 O   0  0  0  0  0  0  0  0  0  0  0  0
    5.9708   -4.9866   37.2120 C   0  0  0  0  0  0  0  0  0  0  0  0
    6.1121   -1.1244   34.8347 H   0  0  0  0  0  0  0  0  0  0  0  0
    7.6771   -1.9219   35.0283 H   0  0  0  0  0  0  0  0  0  0  0  0
    6.7589   -2.2211   33.5490 H   0  0  0  0  0  0  0  0  0  0  0  0
    4.4820   -2.0244   33.4021 H   0  0  0  0  0  0  0  0  0  0  0  0
    2.1775   -2.5616   33.0276 H   0  0  0  0  0  0  0  0  0  0  0  0
    0.2444   -2.4092   35.0838 H   0  0  0  0  0  0  0  0  0  0  0  0
   -2.9648   -0.3967   34.5524 H   0  0  0  0  0  0  0  0  0  0  0  0
   -2.0091   -1.2984   35.5864 H   0  0  0  0  0  0  0  0  0  0  0  0
   -1.5872   -5.8551   32.0814 H   0  0  0  0  0  0  0  0  0  0  0  0
    1.4899   -6.8834   33.6952 H   0  0  0  0  0  0  0  0  0  0  0  0
   -0.0465   -7.4486   34.1829 H   0  0  0  0  0  0  0  0  0  0  0  0
    0.2460   -6.8501   31.2871 H   0  0  0  0  0  0  0  0  0  0  0  0
   -0.4356   -9.3949   28.7810 H   0  0  0  0  0  0  0  0  0  0  0  0
    0.1177  -12.0103   28.1450 H   0  0  0  0  0  0  0  0  0  0  0  0
   -0.0760  -13.9716   31.3506 H   0  0  0  0  0  0  0  0  0  0  0  0
    0.0823  -14.1476   29.5777 H   0  0  0  0  0  0  0  0  0  0  0  0
    1.5004  -13.6492   30.5600 H   0  0  0  0  0  0  0  0  0  0  0  0
    2.2945   -5.5613   36.1181 H   0  0  0  0  0  0  0  0  0  0  0  0
    6.1717   -5.6691   38.0441 H   0  0  0  0  0  0  0  0  0  0  0  0
    6.0860   -3.9686   37.5970 H   0  0  0  0  0  0  0  0  0  0  0  0
    6.6963   -5.2184   36.4262 H   0  0  0  0  0  0  0  0  0  0  0  0
  1  2  1  0
  2  3  1  0
  3  4  2  0
  4  5  1  0
  5  6  2  0
  6  7  1  0
  7  8  2  0
  8  9  1  0
  9 10  1  0
 10 11  1  0
 10 12  2  0
 12 13  1  0
 13 14  2  0
 14 15  1  0
 15 16  2  0
 16 17  1  0
 17 18  1  0
 18 19  1  0
 19 20  2  0
 19 21  2  0
 19 22  1  0
 22 23  1  0
 23 24  2  0
 24 25  1  0
 25 26  1  0
 25 27  1  0
  6 28  1  0
 28 29  2  0
 29 30  1  0
 30 31  1  0
 29  3  1  0
 16  7  1  0
 27 22  2  0
 14  9  1  0
  1 32  1  0
  1 33  1  0
  1 34  1  0
  4 35  1  0
  5 36  1  0
  8 37  1  0
 11 38  1  0
 11 39  1  0
 15 40  1  0
 17 41  1  0
 17 42  1  0
 18 43  1  0
 23 44  1  0
 24 45  1  0
 26 46  1  0
 26 47  1  0
 26 48  1  0
 28 49  1  0
 31 50  1  0
 31 51  1  0
 31 52  1  0
M  END
>  <Energy>  (982) 
111.40073274673718

>  <compound_id>  (982) 
3836

>  <target_id>  (982) 
1

>  <reference_id>  (982) 
116

>  <inspiration_ids>  (982) 
[132, 116]

>  <energy_score>  (982) 
-38.04758371197221

>  <distance_score>  (982) 
3.4191359984271217

>  <path>  (982) 
/opt/xchem-fragalysis-2/maxwin/BulkDock/SCRATCH/505734/C3836-P116/C3836-P116.minimised.mol

>  <scratch_subdir>  (982) 
/opt/xchem-fragalysis-2/maxwin/BulkDock/SCRATCH/505734/C3836-P116

>  <fragmenstein_runtime>  (982) 
10.600924730300903

>  <fragmenstein_outcome>  (982) 
too moved

>  <fragmenstein_mode>  (982) 
expansion

>  <fragmenstein_error>  (982) 


$$$$
C3838-P132
     RDKit          3D

 48 51  0  0  0  0  0  0  0  0999 V2000
    6.2347   -0.8290   33.6616 C   0  0  0  0  0  0  0  0  0  0  0  0
    5.5604   -1.7487   34.5078 O   0  0  0  0  0  0  0  0  0  0  0  0
    4.5002   -2.4289   33.9794 C   0  0  0  0  0  0  0  0  0  0  0  0
    3.9547   -2.2142   32.7184 C   0  0  0  0  0  0  0  0  0  0  0  0
    2.8639   -2.9785   32.2839 C   0  0  0  0  0  0  0  0  0  0  0  0
    2.2428   -3.9295   33.1134 C   0  0  0  0  0  0  0  0  0  0  0  0
    1.1043   -4.7346   32.5925 C   0  0  0  0  0  0  0  0  0  0  0  0
    0.6574   -5.8416   33.2212 C   0  0  0  0  0  0  0  0  0  0  0  0
   -0.2056   -6.6957   32.5428 N   0  0  0  0  0  0  0  0  0  0  0  0
   -1.0097   -7.7167   32.9870 C   0  0  0  0  0  0  0  0  0  0  0  0
   -1.2639   -7.9188   34.2984 N   0  0  0  0  0  0  0  0  0  0  0  0
   -1.4907   -8.3635   31.9461 N   0  0  0  0  0  0  0  0  0  0  0  0
   -1.1276   -7.6801   30.8015 N   0  0  0  0  0  0  0  0  0  0  0  0
   -0.4275   -6.6308   31.1780 C   0  0  0  0  0  0  0  0  0  0  0  0
   -0.0662   -5.4091   30.5335 C   0  0  0  0  0  0  0  0  0  0  0  0
    0.3946   -4.4155   31.3320 C   0  0  0  0  0  0  0  0  0  0  0  0
   -0.3580   -3.1028   31.3318 C   0  0  0  0  0  0  0  0  0  0  0  0
    0.0554   -2.2137   30.2460 N   0  0  0  0  0  0  0  0  0  0  0  0
   -1.2832   -1.3544   29.6556 S   0  0  0  0  0  0  0  0  0  0  0  0
   -1.8551   -2.1395   28.5989 O   0  0  0  0  0  0  0  0  0  0  0  0
   -2.0412   -0.9119   30.8098 O   0  0  0  0  0  0  0  0  0  0  0  0
   -0.7704    0.1242   28.9260 C   0  0  0  0  0  0  0  0  0  0  0  0
   -1.2200    0.5632   27.6985 C   0  0  0  0  0  0  0  0  0  0  0  0
   -0.6765    2.1616   27.4316 S   0  0  0  0  0  0  0  0  0  0  0  0
    0.1668    2.1106   28.9264 C   0  0  0  0  0  0  0  0  0  0  0  0
    0.0728    0.9949   29.6172 N   0  0  0  0  0  0  0  0  0  0  0  0
    2.7966   -4.1297   34.3816 C   0  0  0  0  0  0  0  0  0  0  0  0
    3.9341   -3.4230   34.7835 C   0  0  0  0  0  0  0  0  0  0  0  0
    4.4555   -3.7279   36.0162 O   0  0  0  0  0  0  0  0  0  0  0  0
    5.5297   -4.6599   35.8727 C   0  0  0  0  0  0  0  0  0  0  0  0
    7.0801   -0.4171   34.2211 H   0  0  0  0  0  0  0  0  0  0  0  0
    6.6354   -1.3275   32.7728 H   0  0  0  0  0  0  0  0  0  0  0  0
    5.5806    0.0049   33.3864 H   0  0  0  0  0  0  0  0  0  0  0  0
    4.3646   -1.4772   32.0354 H   0  0  0  0  0  0  0  0  0  0  0  0
    2.5279   -2.8228   31.2619 H   0  0  0  0  0  0  0  0  0  0  0  0
    0.9649   -6.1700   34.2021 H   0  0  0  0  0  0  0  0  0  0  0  0
   -1.5702   -8.8740   34.5218 H   0  0  0  0  0  0  0  0  0  0  0  0
   -0.6551   -7.5510   35.0187 H   0  0  0  0  0  0  0  0  0  0  0  0
   -0.5890   -5.1661   29.6132 H   0  0  0  0  0  0  0  0  0  0  0  0
   -1.4266   -3.3520   31.2629 H   0  0  0  0  0  0  0  0  0  0  0  0
   -0.2391   -2.5723   32.2850 H   0  0  0  0  0  0  0  0  0  0  0  0
    0.7582   -1.5332   30.5398 H   0  0  0  0  0  0  0  0  0  0  0  0
   -1.8556    0.0459   26.9915 H   0  0  0  0  0  0  0  0  0  0  0  0
    0.7380    2.9637   29.2707 H   0  0  0  0  0  0  0  0  0  0  0  0
    2.3839   -4.8425   35.0873 H   0  0  0  0  0  0  0  0  0  0  0  0
    5.8842   -4.9168   36.8755 H   0  0  0  0  0  0  0  0  0  0  0  0
    6.3681   -4.2231   35.3200 H   0  0  0  0  0  0  0  0  0  0  0  0
    5.1923   -5.5823   35.3865 H   0  0  0  0  0  0  0  0  0  0  0  0
  1  2  1  0
  2  3  1  0
  3  4  2  0
  4  5  1  0
  5  6  2  0
  6  7  1  0
  7  8  2  0
  8  9  1  0
  9 10  1  0
 10 11  1  0
 10 12  2  0
 12 13  1  0
 13 14  2  0
 14 15  1  0
 15 16  2  0
 16 17  1  0
 17 18  1  0
 18 19  1  0
 19 20  2  0
 19 21  2  0
 19 22  1  0
 22 23  2  0
 23 24  1  0
 24 25  1  0
 25 26  2  0
  6 27  1  0
 27 28  2  0
 28 29  1  0
 29 30  1  0
 28  3  1  0
 16  7  1  0
 26 22  1  0
 14  9  1  0
  1 31  1  0
  1 32  1  0
  1 33  1  0
  4 34  1  0
  5 35  1  0
  8 36  1  0
 11 37  1  0
 11 38  1  0
 15 39  1  0
 17 40  1  0
 17 41  1  0
 18 42  1  0
 23 43  1  0
 25 44  1  0
 27 45  1  0
 30 46  1  0
 30 47  1  0
 30 48  1  0
M  END
>  <Energy>  (983) 
83.934107450055052

>  <compound_id>  (983) 
3838

>  <target_id>  (983) 
1

>  <reference_id>  (983) 
132

>  <inspiration_ids>  (983) 
[132, 130]

>  <energy_score>  (983) 
-47.628188725578326

>  <distance_score>  (983) 
0.9063864089293825

>  <path>  (983) 
/opt/xchem-fragalysis-2/maxwin/BulkDock/SCRATCH/505734/C3838-P132/C3838-P132.minimised.mol

>  <scratch_subdir>  (983) 
/opt/xchem-fragalysis-2/maxwin/BulkDock/SCRATCH/505734/C3838-P132

>  <fragmenstein_runtime>  (983) 
3.11790132522583

>  <fragmenstein_outcome>  (983) 
acceptable

>  <fragmenstein_mode>  (983) 
expansion

>  <fragmenstein_error>  (983) 


$$$$
C3838-P130
     RDKit          3D

 48 51  0  0  0  0  0  0  0  0999 V2000
    6.2771   -0.8536   33.6780 C   0  0  0  0  0  0  0  0  0  0  0  0
    5.6278   -1.7729   34.5443 O   0  0  0  0  0  0  0  0  0  0  0  0
    4.5488   -2.4482   34.0484 C   0  0  0  0  0  0  0  0  0  0  0  0
    3.9777   -2.2406   32.7987 C   0  0  0  0  0  0  0  0  0  0  0  0
    2.8660   -2.9929   32.4036 C   0  0  0  0  0  0  0  0  0  0  0  0
    2.2502   -3.9225   33.2629 C   0  0  0  0  0  0  0  0  0  0  0  0
    1.0744   -4.6972   32.7862 C   0  0  0  0  0  0  0  0  0  0  0  0
    0.6716   -5.8403   33.3759 C   0  0  0  0  0  0  0  0  0  0  0  0
   -0.2240   -6.6562   32.6940 N   0  0  0  0  0  0  0  0  0  0  0  0
   -1.0211   -7.6863   33.1199 C   0  0  0  0  0  0  0  0  0  0  0  0
   -1.2635   -7.9136   34.4304 N   0  0  0  0  0  0  0  0  0  0  0  0
   -1.5116   -8.3072   32.0673 N   0  0  0  0  0  0  0  0  0  0  0  0
   -1.1879   -7.5749   30.9405 N   0  0  0  0  0  0  0  0  0  0  0  0
   -0.5049   -6.5248   31.3460 C   0  0  0  0  0  0  0  0  0  0  0  0
   -0.2063   -5.2582   30.7672 C   0  0  0  0  0  0  0  0  0  0  0  0
    0.2853   -4.3089   31.5981 C   0  0  0  0  0  0  0  0  0  0  0  0
   -0.3347   -2.9310   31.6552 C   0  0  0  0  0  0  0  0  0  0  0  0
    0.1315   -2.0780   30.5821 N   0  0  0  0  0  0  0  0  0  0  0  0
   -0.7864   -2.1066   29.1722 S   0  0  0  0  0  0  0  0  0  0  0  0
    0.0383   -2.7769   28.2007 O   0  0  0  0  0  0  0  0  0  0  0  0
   -2.1224   -2.5083   29.5315 O   0  0  0  0  0  0  0  0  0  0  0  0
   -0.9153   -0.4434   28.6884 C   0  0  0  0  0  0  0  0  0  0  0  0
   -1.5736   -0.0138   27.5593 C   0  0  0  0  0  0  0  0  0  0  0  0
   -1.4671    1.6916   27.4447 S   0  0  0  0  0  0  0  0  0  0  0  0
   -0.5585    1.7209   28.9007 C   0  0  0  0  0  0  0  0  0  0  0  0
   -0.3557    0.5623   29.4918 N   0  0  0  0  0  0  0  0  0  0  0  0
    2.8322   -4.1219   34.5159 C   0  0  0  0  0  0  0  0  0  0  0  0
    3.9902   -3.4277   34.8771 C   0  0  0  0  0  0  0  0  0  0  0  0
    4.5422   -3.7281   36.0972 O   0  0  0  0  0  0  0  0  0  0  0  0
    5.5905   -4.6850   35.9292 C   0  0  0  0  0  0  0  0  0  0  0  0
    7.1358   -0.4381   34.2141 H   0  0  0  0  0  0  0  0  0  0  0  0
    6.6562   -1.3539   32.7806 H   0  0  0  0  0  0  0  0  0  0  0  0
    5.6142   -0.0220   33.4175 H   0  0  0  0  0  0  0  0  0  0  0  0
    4.3778   -1.5179   32.0952 H   0  0  0  0  0  0  0  0  0  0  0  0
    2.4992   -2.8357   31.3908 H   0  0  0  0  0  0  0  0  0  0  0  0
    1.0436   -6.2261   34.3129 H   0  0  0  0  0  0  0  0  0  0  0  0
   -1.5439   -8.8836   34.6225 H   0  0  0  0  0  0  0  0  0  0  0  0
   -0.6246   -7.5768   35.1404 H   0  0  0  0  0  0  0  0  0  0  0  0
   -0.7344   -4.9899   29.8629 H   0  0  0  0  0  0  0  0  0  0  0  0
   -1.4266   -3.0054   31.7032 H   0  0  0  0  0  0  0  0  0  0  0  0
   -0.0822   -2.4316   32.6000 H   0  0  0  0  0  0  0  0  0  0  0  0
    0.2633   -1.0986   30.8545 H   0  0  0  0  0  0  0  0  0  0  0  0
   -2.0867   -0.6093   26.8169 H   0  0  0  0  0  0  0  0  0  0  0  0
   -0.1907    2.6568   29.3032 H   0  0  0  0  0  0  0  0  0  0  0  0
    2.4217   -4.8192   35.2383 H   0  0  0  0  0  0  0  0  0  0  0  0
    5.9764   -4.9342   36.9223 H   0  0  0  0  0  0  0  0  0  0  0  0
    6.4171   -4.2748   35.3393 H   0  0  0  0  0  0  0  0  0  0  0  0
    5.2164   -5.6075   35.4708 H   0  0  0  0  0  0  0  0  0  0  0  0
  1  2  1  0
  2  3  1  0
  3  4  2  0
  4  5  1  0
  5  6  2  0
  6  7  1  0
  7  8  2  0
  8  9  1  0
  9 10  1  0
 10 11  1  0
 10 12  2  0
 12 13  1  0
 13 14  2  0
 14 15  1  0
 15 16  2  0
 16 17  1  0
 17 18  1  0
 18 19  1  0
 19 20  2  0
 19 21  2  0
 19 22  1  0
 22 23  2  0
 23 24  1  0
 24 25  1  0
 25 26  2  0
  6 27  1  0
 27 28  2  0
 28 29  1  0
 29 30  1  0
 28  3  1  0
 16  7  1  0
 26 22  1  0
 14  9  1  0
  1 31  1  0
  1 32  1  0
  1 33  1  0
  4 34  1  0
  5 35  1  0
  8 36  1  0
 11 37  1  0
 11 38  1  0
 15 39  1  0
 17 40  1  0
 17 41  1  0
 18 42  1  0
 23 43  1  0
 25 44  1  0
 27 45  1  0
 30 46  1  0
 30 47  1  0
 30 48  1  0
M  END
>  <Energy>  (984) 
82.581383109932005

>  <compound_id>  (984) 
3838

>  <target_id>  (984) 
1

>  <reference_id>  (984) 
130

>  <inspiration_ids>  (984) 
[132, 130]

>  <energy_score>  (984) 
-48.98091306570194

>  <distance_score>  (984) 
0.8930486111145974

>  <path>  (984) 
/opt/xchem-fragalysis-2/maxwin/BulkDock/SCRATCH/505734/C3838-P130/C3838-P130.minimised.mol

>  <scratch_subdir>  (984) 
/opt/xchem-fragalysis-2/maxwin/BulkDock/SCRATCH/505734/C3838-P130

>  <fragmenstein_runtime>  (984) 
3.3296122550964355

>  <fragmenstein_outcome>  (984) 
acceptable

>  <fragmenstein_mode>  (984) 
expansion

>  <fragmenstein_error>  (984) 


$$$$
C3839-P132
     RDKit          3D

 53 56  0  0  0  0  0  0  0  0999 V2000
    6.1386   -0.7865   33.6262 C   0  0  0  0  0  0  0  0  0  0  0  0
    5.4739   -1.7117   34.4744 O   0  0  0  0  0  0  0  0  0  0  0  0
    4.3957   -2.3719   33.9562 C   0  0  0  0  0  0  0  0  0  0  0  0
    3.7669   -2.0665   32.7529 C   0  0  0  0  0  0  0  0  0  0  0  0
    2.6617   -2.8150   32.3189 C   0  0  0  0  0  0  0  0  0  0  0  0
    2.1199   -3.8593   33.0895 C   0  0  0  0  0  0  0  0  0  0  0  0
    0.9871   -4.6832   32.5673 C   0  0  0  0  0  0  0  0  0  0  0  0
    0.5143   -5.7499   33.2474 C   0  0  0  0  0  0  0  0  0  0  0  0
   -0.2964   -6.6679   32.5896 N   0  0  0  0  0  0  0  0  0  0  0  0
   -1.0721   -7.7001   33.0607 C   0  0  0  0  0  0  0  0  0  0  0  0
   -1.3164   -7.8927   34.3779 N   0  0  0  0  0  0  0  0  0  0  0  0
   -1.5390   -8.3848   32.0385 N   0  0  0  0  0  0  0  0  0  0  0  0
   -1.1643   -7.7475   30.8745 N   0  0  0  0  0  0  0  0  0  0  0  0
   -0.4689   -6.6850   31.2170 C   0  0  0  0  0  0  0  0  0  0  0  0
   -0.0849   -5.5084   30.5086 C   0  0  0  0  0  0  0  0  0  0  0  0
    0.3381   -4.4561   31.2506 C   0  0  0  0  0  0  0  0  0  0  0  0
   -0.4147   -3.1487   31.1145 C   0  0  0  0  0  0  0  0  0  0  0  0
   -0.1335   -2.4325   29.8593 N   0  0  0  0  0  0  0  0  0  0  0  0
   -1.3985   -1.3476   29.5183 S   0  0  0  0  0  0  0  0  0  0  0  0
   -2.0533   -1.9184   28.3746 O   0  0  0  0  0  0  0  0  0  0  0  0
   -2.0880   -1.0613   30.7604 O   0  0  0  0  0  0  0  0  0  0  0  0
   -0.6761    0.1442   29.0188 C   0  0  0  0  0  0  0  0  0  0  0  0
   -1.0626    0.7614   27.8345 C   0  0  0  0  0  0  0  0  0  0  0  0
   -0.6608    2.0723   27.6158 C   0  0  0  0  0  0  0  0  0  0  0  0
    0.1171    2.7024   28.5795 C   0  0  0  0  0  0  0  0  0  0  0  0
    0.5064    4.0287   28.4130 N   0  0  0  0  0  0  0  0  0  0  0  0
    0.5345    2.0916   29.7066 N   0  0  0  0  0  0  0  0  0  0  0  0
    0.1141    0.8253   29.9164 C   0  0  0  0  0  0  0  0  0  0  0  0
    2.7582   -4.1442   34.3049 C   0  0  0  0  0  0  0  0  0  0  0  0
    3.8930   -3.4343   34.7112 C   0  0  0  0  0  0  0  0  0  0  0  0
    4.4643   -3.8031   35.9043 O   0  0  0  0  0  0  0  0  0  0  0  0
    5.5711   -4.6755   35.6728 C   0  0  0  0  0  0  0  0  0  0  0  0
    5.5036    0.0809   33.4188 H   0  0  0  0  0  0  0  0  0  0  0  0
    7.0282   -0.4284   34.1534 H   0  0  0  0  0  0  0  0  0  0  0  0
    6.4712   -1.2638   32.6982 H   0  0  0  0  0  0  0  0  0  0  0  0
    4.1123   -1.2569   32.1173 H   0  0  0  0  0  0  0  0  0  0  0  0
    2.2483   -2.5560   31.3467 H   0  0  0  0  0  0  0  0  0  0  0  0
    0.7707   -6.0043   34.2641 H   0  0  0  0  0  0  0  0  0  0  0  0
   -1.5843   -8.8636   34.5905 H   0  0  0  0  0  0  0  0  0  0  0  0
   -0.6682   -7.5446   35.0742 H   0  0  0  0  0  0  0  0  0  0  0  0
   -0.5746   -5.3500   29.5552 H   0  0  0  0  0  0  0  0  0  0  0  0
   -1.4818   -3.4073   31.1755 H   0  0  0  0  0  0  0  0  0  0  0  0
   -0.2058   -2.4792   31.9573 H   0  0  0  0  0  0  0  0  0  0  0  0
   -0.1047   -3.0551   29.0450 H   0  0  0  0  0  0  0  0  0  0  0  0
   -1.7050    0.2578   27.1151 H   0  0  0  0  0  0  0  0  0  0  0  0
   -0.9701    2.6037   26.7221 H   0  0  0  0  0  0  0  0  0  0  0  0
   -0.3089    4.6245   28.2873 H   0  0  0  0  0  0  0  0  0  0  0  0
    1.0024    4.3000   29.2586 H   0  0  0  0  0  0  0  0  0  0  0  0
    0.4118    0.3935   30.8671 H   0  0  0  0  0  0  0  0  0  0  0  0
    2.4182   -4.9318   34.9679 H   0  0  0  0  0  0  0  0  0  0  0  0
    6.3800   -4.1642   35.1407 H   0  0  0  0  0  0  0  0  0  0  0  0
    5.9557   -4.9927   36.6468 H   0  0  0  0  0  0  0  0  0  0  0  0
    5.2615   -5.5716   35.1231 H   0  0  0  0  0  0  0  0  0  0  0  0
  1  2  1  0
  2  3  1  0
  3  4  2  0
  4  5  1  0
  5  6  2  0
  6  7  1  0
  7  8  2  0
  8  9  1  0
  9 10  1  0
 10 11  1  0
 10 12  2  0
 12 13  1  0
 13 14  2  0
 14 15  1  0
 15 16  2  0
 16 17  1  0
 17 18  1  0
 18 19  1  0
 19 20  2  0
 19 21  2  0
 19 22  1  0
 22 23  2  0
 23 24  1  0
 24 25  2  0
 25 26  1  0
 25 27  1  0
 27 28  2  0
  6 29  1  0
 29 30  2  0
 30 31  1  0
 31 32  1  0
 30  3  1  0
 16  7  1  0
 28 22  1  0
 14  9  1  0
  1 33  1  0
  1 34  1  0
  1 35  1  0
  4 36  1  0
  5 37  1  0
  8 38  1  0
 11 39  1  0
 11 40  1  0
 15 41  1  0
 17 42  1  0
 17 43  1  0
 18 44  1  0
 23 45  1  0
 24 46  1  0
 26 47  1  0
 26 48  1  0
 28 49  1  0
 29 50  1  0
 32 51  1  0
 32 52  1  0
 32 53  1  0
M  END
>  <Energy>  (985) 
-12.868159684020132

>  <compound_id>  (985) 
3839

>  <target_id>  (985) 
1

>  <reference_id>  (985) 
132

>  <inspiration_ids>  (985) 
[132, 131]

>  <energy_score>  (985) 
-46.26774244342812

>  <distance_score>  (985) 
0.8637716017876287

>  <path>  (985) 
/opt/xchem-fragalysis-2/maxwin/BulkDock/SCRATCH/505734/C3839-P132/C3839-P132.minimised.mol

>  <scratch_subdir>  (985) 
/opt/xchem-fragalysis-2/maxwin/BulkDock/SCRATCH/505734/C3839-P132

>  <fragmenstein_runtime>  (985) 
3.837538242340088

>  <fragmenstein_outcome>  (985) 
acceptable

>  <fragmenstein_mode>  (985) 
expansion

>  <fragmenstein_error>  (985) 


$$$$
C3839-P131
     RDKit          3D

 53 56  0  0  0  0  0  0  0  0999 V2000
    6.1787   -1.4178   33.8221 C   0  0  0  0  0  0  0  0  0  0  0  0
    5.1316   -1.5581   34.7837 O   0  0  0  0  0  0  0  0  0  0  0  0
    4.1250   -2.3370   34.2833 C   0  0  0  0  0  0  0  0  0  0  0  0
    2.9507   -1.7049   33.8958 C   0  0  0  0  0  0  0  0  0  0  0  0
    1.8863   -2.4591   33.3951 C   0  0  0  0  0  0  0  0  0  0  0  0
    1.9937   -3.8412   33.2274 C   0  0  0  0  0  0  0  0  0  0  0  0
    0.9240   -4.6453   32.5935 C   0  0  0  0  0  0  0  0  0  0  0  0
    0.3411   -5.5953   33.3600 C   0  0  0  0  0  0  0  0  0  0  0  0
   -0.4263   -6.5920   32.7621 N   0  0  0  0  0  0  0  0  0  0  0  0
   -1.1382   -7.6534   33.2800 C   0  0  0  0  0  0  0  0  0  0  0  0
   -1.3135   -7.8655   34.6053 N   0  0  0  0  0  0  0  0  0  0  0  0
   -1.5888   -8.3923   32.2863 N   0  0  0  0  0  0  0  0  0  0  0  0
   -1.2205   -7.8156   31.0965 N   0  0  0  0  0  0  0  0  0  0  0  0
   -0.5507   -6.7270   31.3929 C   0  0  0  0  0  0  0  0  0  0  0  0
   -0.0311   -5.6883   30.5926 C   0  0  0  0  0  0  0  0  0  0  0  0
    0.5840   -4.6222   31.1500 C   0  0  0  0  0  0  0  0  0  0  0  0
    0.9072   -3.4302   30.2819 C   0  0  0  0  0  0  0  0  0  0  0  0
   -0.2888   -2.9260   29.6109 N   0  0  0  0  0  0  0  0  0  0  0  0
   -1.2369   -1.8048   30.3911 S   0  0  0  0  0  0  0  0  0  0  0  0
   -2.5856   -2.2896   30.2905 O   0  0  0  0  0  0  0  0  0  0  0  0
   -0.6789   -1.5193   31.6919 O   0  0  0  0  0  0  0  0  0  0  0  0
   -1.0370   -0.3747   29.4083 C   0  0  0  0  0  0  0  0  0  0  0  0
   -1.6532   -0.2305   28.1751 C   0  0  0  0  0  0  0  0  0  0  0  0
   -1.5448    0.9957   27.5201 C   0  0  0  0  0  0  0  0  0  0  0  0
   -0.8150    2.0188   28.1121 C   0  0  0  0  0  0  0  0  0  0  0  0
   -0.7183    3.2637   27.4971 N   0  0  0  0  0  0  0  0  0  0  0  0
   -0.1609    1.8645   29.2772 N   0  0  0  0  0  0  0  0  0  0  0  0
   -0.2966    0.6770   29.9107 C   0  0  0  0  0  0  0  0  0  0  0  0
    3.1729   -4.4713   33.6541 C   0  0  0  0  0  0  0  0  0  0  0  0
    4.2092   -3.7270   34.2230 C   0  0  0  0  0  0  0  0  0  0  0  0
    5.3186   -4.4018   34.6519 O   0  0  0  0  0  0  0  0  0  0  0  0
    5.2761   -4.5892   36.0644 C   0  0  0  0  0  0  0  0  0  0  0  0
    5.7933   -1.0637   32.8591 H   0  0  0  0  0  0  0  0  0  0  0  0
    6.8807   -0.6688   34.2007 H   0  0  0  0  0  0  0  0  0  0  0  0
    6.7263   -2.3565   33.6919 H   0  0  0  0  0  0  0  0  0  0  0  0
    2.8513   -0.6276   33.9997 H   0  0  0  0  0  0  0  0  0  0  0  0
    0.9670   -1.9413   33.1526 H   0  0  0  0  0  0  0  0  0  0  0  0
    0.4943   -5.6776   34.4291 H   0  0  0  0  0  0  0  0  0  0  0  0
   -1.4999   -8.8622   34.8191 H   0  0  0  0  0  0  0  0  0  0  0  0
   -0.6307   -7.5166   35.2674 H   0  0  0  0  0  0  0  0  0  0  0  0
   -0.2512   -5.7174   29.5374 H   0  0  0  0  0  0  0  0  0  0  0  0
    1.4263   -2.6219   30.7986 H   0  0  0  0  0  0  0  0  0  0  0  0
    1.6087   -3.7537   29.5014 H   0  0  0  0  0  0  0  0  0  0  0  0
   -0.8377   -3.5665   29.0344 H   0  0  0  0  0  0  0  0  0  0  0  0
   -2.2253   -1.0410   27.7294 H   0  0  0  0  0  0  0  0  0  0  0  0
   -2.0409    1.1493   26.5673 H   0  0  0  0  0  0  0  0  0  0  0  0
   -1.6458    3.6434   27.3143 H   0  0  0  0  0  0  0  0  0  0  0  0
   -0.2183    3.8733   28.1415 H   0  0  0  0  0  0  0  0  0  0  0  0
    0.2186    0.6215   30.8655 H   0  0  0  0  0  0  0  0  0  0  0  0
    3.2939   -5.5462   33.5558 H   0  0  0  0  0  0  0  0  0  0  0  0
    4.3682   -5.1229   36.3677 H   0  0  0  0  0  0  0  0  0  0  0  0
    6.1380   -5.2007   36.3477 H   0  0  0  0  0  0  0  0  0  0  0  0
    5.3507   -3.6343   36.5951 H   0  0  0  0  0  0  0  0  0  0  0  0
  1  2  1  0
  2  3  1  0
  3  4  2  0
  4  5  1  0
  5  6  2  0
  6  7  1  0
  7  8  2  0
  8  9  1  0
  9 10  1  0
 10 11  1  0
 10 12  2  0
 12 13  1  0
 13 14  2  0
 14 15  1  0
 15 16  2  0
 16 17  1  0
 17 18  1  0
 18 19  1  0
 19 20  2  0
 19 21  2  0
 19 22  1  0
 22 23  2  0
 23 24  1  0
 24 25  2  0
 25 26  1  0
 25 27  1  0
 27 28  2  0
  6 29  1  0
 29 30  2  0
 30 31  1  0
 31 32  1  0
 30  3  1  0
 16  7  1  0
 28 22  1  0
 14  9  1  0
  1 33  1  0
  1 34  1  0
  1 35  1  0
  4 36  1  0
  5 37  1  0
  8 38  1  0
 11 39  1  0
 11 40  1  0
 15 41  1  0
 17 42  1  0
 17 43  1  0
 18 44  1  0
 23 45  1  0
 24 46  1  0
 26 47  1  0
 26 48  1  0
 28 49  1  0
 29 50  1  0
 32 51  1  0
 32 52  1  0
 32 53  1  0
M  END
>  <Energy>  (986) 
-38.01503771006201

>  <compound_id>  (986) 
3839

>  <target_id>  (986) 
1

>  <reference_id>  (986) 
131

>  <inspiration_ids>  (986) 
[132, 131]

>  <energy_score>  (986) 
-71.41462046946913

>  <distance_score>  (986) 
1.173855511325486

>  <path>  (986) 
/opt/xchem-fragalysis-2/maxwin/BulkDock/SCRATCH/505734/C3839-P131/C3839-P131.minimised.mol

>  <scratch_subdir>  (986) 
/opt/xchem-fragalysis-2/maxwin/BulkDock/SCRATCH/505734/C3839-P131

>  <fragmenstein_runtime>  (986) 
4.757021188735962

>  <fragmenstein_outcome>  (986) 
too moved

>  <fragmenstein_mode>  (986) 
expansion

>  <fragmenstein_error>  (986) 


$$$$
C3839-P132
     RDKit          2D

  0  0  0  0  0  0  0  0  0  0999 V2000
M  END
>  <compound_id>  (987) 
3839

>  <target_id>  (987) 
1

>  <reference_id>  (987) 
132

>  <inspiration_ids>  (987) 
[132, 133]

>  <energy_score>  (987) 
nan

>  <distance_score>  (987) 
nan

>  <path>  (987) 
/opt/xchem-fragalysis-2/maxwin/BulkDock/SCRATCH/505734/C3839-P132/C3839-P132.minimised.mol

>  <scratch_subdir>  (987) 
/opt/xchem-fragalysis-2/maxwin/BulkDock/SCRATCH/505734/C3839-P132

>  <fragmenstein_runtime>  (987) 
0.13848304748535156

>  <fragmenstein_outcome>  (987) 
too distant

>  <fragmenstein_mode>  (987) 
expansion

>  <fragmenstein_error>  (987) 
DistanceError: hit0+hit1

$$$$
C3840-P132
     RDKit          3D

 47 49  0  0  0  0  0  0  0  0999 V2000
   -1.2626   -2.7791   33.6709 C   0  0  0  0  0  0  0  0  0  0  0  0
   -2.2985   -2.1401   32.7689 C   0  0  0  0  0  0  0  0  0  0  0  0
   -2.1465   -2.6668   31.4479 O   0  0  0  0  0  0  0  0  0  0  0  0
   -1.2041   -2.0516   30.6901 C   0  0  0  0  0  0  0  0  0  0  0  0
   -0.5599   -1.0561   30.9725 O   0  0  0  0  0  0  0  0  0  0  0  0
   -1.0486   -2.8089   29.4449 C   0  0  0  0  0  0  0  0  0  0  0  0
   -0.5267   -4.0467   29.4151 C   0  0  0  0  0  0  0  0  0  0  0  0
    0.0420   -4.8039   30.5420 C   0  0  0  0  0  0  0  0  0  0  0  0
    1.1050   -4.2353   31.1453 C   0  0  0  0  0  0  0  0  0  0  0  0
    1.5756   -4.5993   32.4814 C   0  0  0  0  0  0  0  0  0  0  0  0
    2.5853   -3.7721   33.1728 C   0  0  0  0  0  0  0  0  0  0  0  0
    2.5953   -2.3831   32.9463 C   0  0  0  0  0  0  0  0  0  0  0  0
    3.5599   -1.5727   33.5228 C   0  0  0  0  0  0  0  0  0  0  0  0
    4.5186   -2.1471   34.3451 C   0  0  0  0  0  0  0  0  0  0  0  0
    5.4576   -1.3231   34.9072 O   0  0  0  0  0  0  0  0  0  0  0  0
    6.5432   -1.1437   33.9975 C   0  0  0  0  0  0  0  0  0  0  0  0
    4.4987   -3.5170   34.6432 C   0  0  0  0  0  0  0  0  0  0  0  0
    5.4552   -3.9513   35.5184 O   0  0  0  0  0  0  0  0  0  0  0  0
    5.4375   -5.3196   35.8911 C   0  0  0  0  0  0  0  0  0  0  0  0
    3.5406   -4.3298   34.0330 C   0  0  0  0  0  0  0  0  0  0  0  0
    0.9308   -5.6009   33.1155 C   0  0  0  0  0  0  0  0  0  0  0  0
   -0.0705   -6.3003   32.4458 N   0  0  0  0  0  0  0  0  0  0  0  0
   -0.8851   -7.3458   32.8502 C   0  0  0  0  0  0  0  0  0  0  0  0
   -1.0086   -7.7522   34.1331 N   0  0  0  0  0  0  0  0  0  0  0  0
   -1.4867   -7.8431   31.7924 N   0  0  0  0  0  0  0  0  0  0  0  0
   -1.1951   -7.0354   30.7118 N   0  0  0  0  0  0  0  0  0  0  0  0
   -0.4473   -6.0313   31.1333 C   0  0  0  0  0  0  0  0  0  0  0  0
   -0.2625   -2.4299   33.4122 H   0  0  0  0  0  0  0  0  0  0  0  0
   -1.2740   -3.8653   33.5728 H   0  0  0  0  0  0  0  0  0  0  0  0
   -1.4489   -2.5158   34.7161 H   0  0  0  0  0  0  0  0  0  0  0  0
   -2.2272   -1.0463   32.7800 H   0  0  0  0  0  0  0  0  0  0  0  0
   -3.3074   -2.3972   33.1042 H   0  0  0  0  0  0  0  0  0  0  0  0
   -1.4170   -2.3276   28.5454 H   0  0  0  0  0  0  0  0  0  0  0  0
   -0.5371   -4.5529   28.4633 H   0  0  0  0  0  0  0  0  0  0  0  0
    1.5538   -3.3502   30.6959 H   0  0  0  0  0  0  0  0  0  0  0  0
    1.8452   -1.8980   32.3237 H   0  0  0  0  0  0  0  0  0  0  0  0
    3.5587   -0.5018   33.3414 H   0  0  0  0  0  0  0  0  0  0  0  0
    7.3063   -0.5437   34.5023 H   0  0  0  0  0  0  0  0  0  0  0  0
    6.2241   -0.5992   33.1020 H   0  0  0  0  0  0  0  0  0  0  0  0
    6.9963   -2.1022   33.7202 H   0  0  0  0  0  0  0  0  0  0  0  0
    5.6386   -5.9653   35.0299 H   0  0  0  0  0  0  0  0  0  0  0  0
    4.4917   -5.5879   36.3734 H   0  0  0  0  0  0  0  0  0  0  0  0
    6.2385   -5.4794   36.6194 H   0  0  0  0  0  0  0  0  0  0  0  0
    3.5356   -5.3991   34.2055 H   0  0  0  0  0  0  0  0  0  0  0  0
    1.1306   -5.8915   34.1376 H   0  0  0  0  0  0  0  0  0  0  0  0
   -0.3564   -7.4745   34.8548 H   0  0  0  0  0  0  0  0  0  0  0  0
   -1.3725   -8.7024   34.2735 H   0  0  0  0  0  0  0  0  0  0  0  0
  1  2  1  0
  2  3  1  0
  3  4  1  0
  4  5  2  0
  4  6  1  0
  6  7  2  3
  7  8  1  0
  8  9  2  0
  9 10  1  0
 10 11  1  0
 11 12  2  0
 12 13  1  0
 13 14  2  0
 14 15  1  0
 15 16  1  0
 14 17  1  0
 17 18  1  0
 18 19  1  0
 17 20  2  0
 10 21  2  0
 21 22  1  0
 22 23  1  0
 23 24  1  0
 23 25  2  0
 25 26  1  0
 26 27  2  0
 27  8  1  0
 20 11  1  0
 27 22  1  0
  1 28  1  0
  1 29  1  0
  1 30  1  0
  2 31  1  0
  2 32  1  0
  6 33  1  0
  7 34  1  0
  9 35  1  0
 12 36  1  0
 13 37  1  0
 16 38  1  0
 16 39  1  0
 16 40  1  0
 19 41  1  0
 19 42  1  0
 19 43  1  0
 20 44  1  0
 21 45  1  0
 24 46  1  0
 24 47  1  0
M  END
>  <Energy>  (988) 
78.525044381208104

>  <compound_id>  (988) 
3840

>  <target_id>  (988) 
1

>  <reference_id>  (988) 
132

>  <inspiration_ids>  (988) 
[132, 134]

>  <energy_score>  (988) 
-41.28341204075858

>  <distance_score>  (988) 
1.4167046900986309

>  <path>  (988) 
/opt/xchem-fragalysis-2/maxwin/BulkDock/SCRATCH/505734/C3840-P132/C3840-P132.minimised.mol

>  <scratch_subdir>  (988) 
/opt/xchem-fragalysis-2/maxwin/BulkDock/SCRATCH/505734/C3840-P132

>  <fragmenstein_runtime>  (988) 
3.978410243988037

>  <fragmenstein_outcome>  (988) 
too moved

>  <fragmenstein_mode>  (988) 
expansion

>  <fragmenstein_error>  (988) 


$$$$
C3840-P134
     RDKit          3D

 47 49  0  0  0  0  0  0  0  0999 V2000
   -1.2866   -2.7102   33.6801 C   0  0  0  0  0  0  0  0  0  0  0  0
   -2.3418   -2.0739   32.7977 C   0  0  0  0  0  0  0  0  0  0  0  0
   -2.2054   -2.5856   31.4691 O   0  0  0  0  0  0  0  0  0  0  0  0
   -1.2543   -1.9791   30.7163 C   0  0  0  0  0  0  0  0  0  0  0  0
   -0.5996   -0.9911   31.0018 O   0  0  0  0  0  0  0  0  0  0  0  0
   -1.1003   -2.7392   29.4732 C   0  0  0  0  0  0  0  0  0  0  0  0
   -0.5820   -3.9785   29.4454 C   0  0  0  0  0  0  0  0  0  0  0  0
   -0.0123   -4.7404   30.5688 C   0  0  0  0  0  0  0  0  0  0  0  0
    1.0532   -4.1762   31.1721 C   0  0  0  0  0  0  0  0  0  0  0  0
    1.5298   -4.5496   32.5040 C   0  0  0  0  0  0  0  0  0  0  0  0
    2.5533   -3.7356   33.1915 C   0  0  0  0  0  0  0  0  0  0  0  0
    2.5822   -2.3473   32.9643 C   0  0  0  0  0  0  0  0  0  0  0  0
    3.5632   -1.5509   33.5331 C   0  0  0  0  0  0  0  0  0  0  0  0
    4.5199   -2.1387   34.3484 C   0  0  0  0  0  0  0  0  0  0  0  0
    5.4758   -1.3299   34.9042 O   0  0  0  0  0  0  0  0  0  0  0  0
    6.5458   -1.1455   33.9773 C   0  0  0  0  0  0  0  0  0  0  0  0
    4.4818   -3.5077   34.6479 C   0  0  0  0  0  0  0  0  0  0  0  0
    5.4401   -3.9565   35.5141 O   0  0  0  0  0  0  0  0  0  0  0  0
    5.4010   -5.3232   35.8906 C   0  0  0  0  0  0  0  0  0  0  0  0
    3.5057   -4.3060   34.0469 C   0  0  0  0  0  0  0  0  0  0  0  0
    0.8820   -5.5503   33.1365 C   0  0  0  0  0  0  0  0  0  0  0  0
   -0.1229   -6.2445   32.4664 N   0  0  0  0  0  0  0  0  0  0  0  0
   -0.9347   -7.2929   32.8673 C   0  0  0  0  0  0  0  0  0  0  0  0
   -1.0634   -7.6894   34.1518 N   0  0  0  0  0  0  0  0  0  0  0  0
   -1.5180   -7.7983   31.8016 N   0  0  0  0  0  0  0  0  0  0  0  0
   -1.2305   -6.9837   30.7236 N   0  0  0  0  0  0  0  0  0  0  0  0
   -0.4975   -5.9727   31.1536 C   0  0  0  0  0  0  0  0  0  0  0  0
   -0.2938   -2.3457   33.4140 H   0  0  0  0  0  0  0  0  0  0  0  0
   -1.2861   -3.7947   33.5698 H   0  0  0  0  0  0  0  0  0  0  0  0
   -1.4636   -2.4607   34.7304 H   0  0  0  0  0  0  0  0  0  0  0  0
   -2.2802   -0.9796   32.8160 H   0  0  0  0  0  0  0  0  0  0  0  0
   -3.3434   -2.3428   33.1453 H   0  0  0  0  0  0  0  0  0  0  0  0
   -1.4692   -2.2601   28.5726 H   0  0  0  0  0  0  0  0  0  0  0  0
   -0.5972   -4.4812   28.4929 H   0  0  0  0  0  0  0  0  0  0  0  0
    1.4994   -3.2882   30.7266 H   0  0  0  0  0  0  0  0  0  0  0  0
    1.8337   -1.8514   32.3484 H   0  0  0  0  0  0  0  0  0  0  0  0
    3.5748   -0.4800   33.3519 H   0  0  0  0  0  0  0  0  0  0  0  0
    7.3271   -0.5675   34.4799 H   0  0  0  0  0  0  0  0  0  0  0  0
    6.2170   -0.5767   33.1006 H   0  0  0  0  0  0  0  0  0  0  0  0
    6.9796   -2.1038   33.6700 H   0  0  0  0  0  0  0  0  0  0  0  0
    5.5826   -5.9746   35.0294 H   0  0  0  0  0  0  0  0  0  0  0  0
    4.4549   -5.5732   36.3824 H   0  0  0  0  0  0  0  0  0  0  0  0
    6.2055   -5.4957   36.6120 H   0  0  0  0  0  0  0  0  0  0  0  0
    3.4831   -5.3742   34.2236 H   0  0  0  0  0  0  0  0  0  0  0  0
    1.0829   -5.8492   34.1560 H   0  0  0  0  0  0  0  0  0  0  0  0
   -0.4380   -7.3932   34.8896 H   0  0  0  0  0  0  0  0  0  0  0  0
   -1.4034   -8.6466   34.3210 H   0  0  0  0  0  0  0  0  0  0  0  0
  1  2  1  0
  2  3  1  0
  3  4  1  0
  4  5  2  0
  4  6  1  0
  6  7  2  3
  7  8  1  0
  8  9  2  0
  9 10  1  0
 10 11  1  0
 11 12  2  0
 12 13  1  0
 13 14  2  0
 14 15  1  0
 15 16  1  0
 14 17  1  0
 17 18  1  0
 18 19  1  0
 17 20  2  0
 10 21  2  0
 21 22  1  0
 22 23  1  0
 23 24  1  0
 23 25  2  0
 25 26  1  0
 26 27  2  0
 27  8  1  0
 20 11  1  0
 27 22  1  0
  1 28  1  0
  1 29  1  0
  1 30  1  0
  2 31  1  0
  2 32  1  0
  6 33  1  0
  7 34  1  0
  9 35  1  0
 12 36  1  0
 13 37  1  0
 16 38  1  0
 16 39  1  0
 16 40  1  0
 19 41  1  0
 19 42  1  0
 19 43  1  0
 20 44  1  0
 21 45  1  0
 24 46  1  0
 24 47  1  0
M  END
>  <Energy>  (989) 
79.273131295411616

>  <compound_id>  (989) 
3840

>  <target_id>  (989) 
1

>  <reference_id>  (989) 
134

>  <inspiration_ids>  (989) 
[132, 134]

>  <energy_score>  (989) 
-40.53532512655664

>  <distance_score>  (989) 
1.423634554161046

>  <path>  (989) 
/opt/xchem-fragalysis-2/maxwin/BulkDock/SCRATCH/505734/C3840-P134/C3840-P134.minimised.mol

>  <scratch_subdir>  (989) 
/opt/xchem-fragalysis-2/maxwin/BulkDock/SCRATCH/505734/C3840-P134

>  <fragmenstein_runtime>  (989) 
3.8041505813598633

>  <fragmenstein_outcome>  (989) 
too moved

>  <fragmenstein_mode>  (989) 
expansion

>  <fragmenstein_error>  (989) 


$$$$
C3840-P132
     RDKit          2D

  0  0  0  0  0  0  0  0  0  0999 V2000
M  END
>  <compound_id>  (990) 
3840

>  <target_id>  (990) 
1

>  <reference_id>  (990) 
132

>  <inspiration_ids>  (990) 
[132, 135]

>  <energy_score>  (990) 
nan

>  <distance_score>  (990) 
nan

>  <path>  (990) 
/opt/xchem-fragalysis-2/maxwin/BulkDock/SCRATCH/505734/C3840-P132/C3840-P132.minimised.mol

>  <scratch_subdir>  (990) 
/opt/xchem-fragalysis-2/maxwin/BulkDock/SCRATCH/505734/C3840-P132

>  <fragmenstein_runtime>  (990) 
0.32102394104003906

>  <fragmenstein_outcome>  (990) 
too distant

>  <fragmenstein_mode>  (990) 
expansion

>  <fragmenstein_error>  (990) 
DistanceError: hit0+hit1

$$$$
C3800-P132
     RDKit          3D

 64 68  0  0  0  0  0  0  0  0999 V2000
   -0.9277   -4.6257   38.4102 C   0  0  0  0  0  0  0  0  0  0  0  0
    0.4130   -3.9413   38.5757 C   0  0  0  0  0  0  0  0  0  0  0  0
    1.3366   -3.7715   37.0680 S   0  0  0  0  0  0  0  0  0  0  0  0
    2.5111   -2.9777   37.3536 O   0  0  0  0  0  0  0  0  0  0  0  0
    0.3455   -3.5609   35.8931 N   0  0  0  0  0  0  0  0  0  0  0  0
    0.6392   -2.7233   34.6329 N   0  0  0  0  0  0  0  0  0  0  0  0
    1.9278   -2.8662   34.0289 C   0  0  0  0  0  0  0  0  0  0  0  0
    2.9182   -1.9618   34.4482 C   0  0  0  0  0  0  0  0  0  0  0  0
    4.2619   -2.2865   34.3520 C   0  0  0  0  0  0  0  0  0  0  0  0
    5.1488   -1.3615   34.8225 O   0  0  0  0  0  0  0  0  0  0  0  0
    6.2767   -1.1743   33.9680 C   0  0  0  0  0  0  0  0  0  0  0  0
    4.5972   -3.5643   33.9233 C   0  0  0  0  0  0  0  0  0  0  0  0
    5.8535   -4.0694   34.0978 O   0  0  0  0  0  0  0  0  0  0  0  0
    5.9814   -4.6220   35.4103 C   0  0  0  0  0  0  0  0  0  0  0  0
    3.6444   -4.3877   33.3261 C   0  0  0  0  0  0  0  0  0  0  0  0
    2.2936   -4.0324   33.3351 C   0  0  0  0  0  0  0  0  0  0  0  0
    1.3407   -4.9333   32.6620 C   0  0  0  0  0  0  0  0  0  0  0  0
    1.2748   -5.0070   31.2006 C   0  0  0  0  0  0  0  0  0  0  0  0
    0.4664   -5.8722   30.5648 C   0  0  0  0  0  0  0  0  0  0  0  0
   -0.3488   -6.7568   31.3119 C   0  0  0  0  0  0  0  0  0  0  0  0
   -1.1716   -7.7223   30.9684 N   0  0  0  0  0  0  0  0  0  0  0  0
   -1.6915   -8.2492   32.1279 N   0  0  0  0  0  0  0  0  0  0  0  0
   -1.1985   -7.5860   33.1529 C   0  0  0  0  0  0  0  0  0  0  0  0
   -1.4557   -7.7953   34.4665 N   0  0  0  0  0  0  0  0  0  0  0  0
   -0.3109   -6.6361   32.6911 N   0  0  0  0  0  0  0  0  0  0  0  0
    0.5250   -5.7471   33.3630 C   0  0  0  0  0  0  0  0  0  0  0  0
    2.0211   -5.2782   36.6105 N   0  0  0  0  0  0  0  0  0  0  0  0
    3.1040   -5.9072   37.3597 C   0  0  0  0  0  0  0  0  0  0  0  0
    2.6622   -6.6689   38.5844 C   0  0  0  0  0  0  0  0  0  0  0  0
    3.5457   -6.7780   39.6843 C   0  0  0  0  0  0  0  0  0  0  0  0
    3.1643   -7.4391   40.8555 C   0  0  0  0  0  0  0  0  0  0  0  0
    1.8964   -7.9706   40.9062 C   0  0  0  0  0  0  0  0  0  0  0  0
    1.0406   -7.8992   39.8355 C   0  0  0  0  0  0  0  0  0  0  0  0
    1.4078   -7.2973   38.6515 C   0  0  0  0  0  0  0  0  0  0  0  0
   -0.1749   -8.4423   40.1075 O   0  0  0  0  0  0  0  0  0  0  0  0
    0.0395   -8.9223   41.4516 C   0  0  0  0  0  0  0  0  0  0  0  0
    1.3394   -8.5877   41.9810 O   0  0  0  0  0  0  0  0  0  0  0  0
   -1.3799   -4.8096   39.3895 H   0  0  0  0  0  0  0  0  0  0  0  0
   -0.8410   -5.5799   37.8857 H   0  0  0  0  0  0  0  0  0  0  0  0
   -1.6194   -3.9981   37.8386 H   0  0  0  0  0  0  0  0  0  0  0  0
    0.2595   -2.9265   38.9593 H   0  0  0  0  0  0  0  0  0  0  0  0
    1.0414   -4.4638   39.2998 H   0  0  0  0  0  0  0  0  0  0  0  0
   -0.0700   -2.9406   33.9248 H   0  0  0  0  0  0  0  0  0  0  0  0
    2.6304   -1.0496   34.9679 H   0  0  0  0  0  0  0  0  0  0  0  0
    7.0816   -1.8621   34.2425 H   0  0  0  0  0  0  0  0  0  0  0  0
    6.6452   -0.1558   34.1252 H   0  0  0  0  0  0  0  0  0  0  0  0
    6.0219   -1.2763   32.9068 H   0  0  0  0  0  0  0  0  0  0  0  0
    5.6910   -3.9088   36.1896 H   0  0  0  0  0  0  0  0  0  0  0  0
    7.0344   -4.8768   35.5626 H   0  0  0  0  0  0  0  0  0  0  0  0
    5.3972   -5.5434   35.4916 H   0  0  0  0  0  0  0  0  0  0  0  0
    3.9640   -5.3328   32.9058 H   0  0  0  0  0  0  0  0  0  0  0  0
    1.8929   -4.3201   30.6264 H   0  0  0  0  0  0  0  0  0  0  0  0
    0.4215   -5.8885   29.4886 H   0  0  0  0  0  0  0  0  0  0  0  0
   -1.6996   -8.7762   34.6608 H   0  0  0  0  0  0  0  0  0  0  0  0
   -0.8078   -7.4449   35.1639 H   0  0  0  0  0  0  0  0  0  0  0  0
    0.4774   -5.7687   34.4416 H   0  0  0  0  0  0  0  0  0  0  0  0
    2.4059   -5.0269   35.7096 H   0  0  0  0  0  0  0  0  0  0  0  0
    3.5925   -6.6352   36.7007 H   0  0  0  0  0  0  0  0  0  0  0  0
    3.8611   -5.1615   37.6255 H   0  0  0  0  0  0  0  0  0  0  0  0
    4.5336   -6.3222   39.6406 H   0  0  0  0  0  0  0  0  0  0  0  0
    3.8310   -7.5072   41.7078 H   0  0  0  0  0  0  0  0  0  0  0  0
    0.7149   -7.2844   37.8188 H   0  0  0  0  0  0  0  0  0  0  0  0
   -0.0798  -10.0094   41.4785 H   0  0  0  0  0  0  0  0  0  0  0  0
   -0.7227   -8.4763   42.1011 H   0  0  0  0  0  0  0  0  0  0  0  0
  1  2  1  0
  2  3  1  0
  3  4  2  0
  3  5  2  0
  5  6  1  0
  6  7  1  0
  7  8  2  0
  8  9  1  0
  9 10  1  0
 10 11  1  0
  9 12  2  0
 12 13  1  0
 13 14  1  0
 12 15  1  0
 15 16  2  0
 16 17  1  0
 17 18  1  0
 18 19  2  0
 19 20  1  0
 20 21  2  0
 21 22  1  0
 22 23  2  0
 23 24  1  0
 23 25  1  0
 25 26  1  0
  3 27  1  0
 27 28  1  0
 28 29  1  0
 29 30  2  0
 30 31  1  0
 31 32  2  0
 32 33  1  0
 33 34  2  0
 33 35  1  0
 35 36  1  0
 36 37  1  0
 16  7  1  0
 26 17  2  0
 34 29  1  0
 25 20  1  0
 37 32  1  0
  1 38  1  0
  1 39  1  0
  1 40  1  0
  2 41  1  0
  2 42  1  0
  6 43  1  0
  8 44  1  0
 11 45  1  0
 11 46  1  0
 11 47  1  0
 14 48  1  0
 14 49  1  0
 14 50  1  0
 15 51  1  0
 18 52  1  0
 19 53  1  0
 24 54  1  0
 24 55  1  0
 26 56  1  0
 27 57  1  0
 28 58  1  0
 28 59  1  0
 30 60  1  0
 31 61  1  0
 34 62  1  0
 36 63  1  0
 36 64  1  0
M  END
>  <Energy>  (991) 
54.408534066091008

>  <compound_id>  (991) 
3800

>  <target_id>  (991) 
1

>  <reference_id>  (991) 
132

>  <inspiration_ids>  (991) 
[132, 140]

>  <energy_score>  (991) 
-75.02320818466198

>  <distance_score>  (991) 
1.0428322362779434

>  <path>  (991) 
/opt/xchem-fragalysis-2/maxwin/BulkDock/SCRATCH/505734/C3800-P132/C3800-P132.minimised.mol

>  <scratch_subdir>  (991) 
/opt/xchem-fragalysis-2/maxwin/BulkDock/SCRATCH/505734/C3800-P132

>  <fragmenstein_runtime>  (991) 
3.3381972312927246

>  <fragmenstein_outcome>  (991) 
too moved

>  <fragmenstein_mode>  (991) 
expansion

>  <fragmenstein_error>  (991) 


$$$$
C3800-P140
     RDKit          3D

 64 68  0  0  0  0  0  0  0  0999 V2000
   -0.9048   -4.3877   38.4668 C   0  0  0  0  0  0  0  0  0  0  0  0
    0.4778   -3.7856   38.6062 C   0  0  0  0  0  0  0  0  0  0  0  0
    1.3816   -3.6719   37.0813 S   0  0  0  0  0  0  0  0  0  0  0  0
    2.5969   -2.9315   37.3389 O   0  0  0  0  0  0  0  0  0  0  0  0
    0.3808   -3.4254   35.9211 N   0  0  0  0  0  0  0  0  0  0  0  0
    0.6711   -2.5704   34.6701 N   0  0  0  0  0  0  0  0  0  0  0  0
    1.9499   -2.7283   34.0492 C   0  0  0  0  0  0  0  0  0  0  0  0
    2.9593   -1.8436   34.4652 C   0  0  0  0  0  0  0  0  0  0  0  0
    4.2964   -2.1976   34.3724 C   0  0  0  0  0  0  0  0  0  0  0  0
    5.2021   -1.2877   34.8343 O   0  0  0  0  0  0  0  0  0  0  0  0
    6.3389   -1.1396   33.9847 C   0  0  0  0  0  0  0  0  0  0  0  0
    4.6033   -3.4858   33.9576 C   0  0  0  0  0  0  0  0  0  0  0  0
    5.8465   -4.0210   34.1332 O   0  0  0  0  0  0  0  0  0  0  0  0
    5.9577   -4.5839   35.4430 C   0  0  0  0  0  0  0  0  0  0  0  0
    3.6317   -4.2880   33.3658 C   0  0  0  0  0  0  0  0  0  0  0  0
    2.2921   -3.8986   33.3541 C   0  0  0  0  0  0  0  0  0  0  0  0
    1.3322   -4.7783   32.6655 C   0  0  0  0  0  0  0  0  0  0  0  0
    1.2973   -4.8681   31.2031 C   0  0  0  0  0  0  0  0  0  0  0  0
    0.4904   -5.7295   30.5595 C   0  0  0  0  0  0  0  0  0  0  0  0
   -0.3541   -6.5914   31.3000 C   0  0  0  0  0  0  0  0  0  0  0  0
   -1.1747   -7.5569   30.9532 N   0  0  0  0  0  0  0  0  0  0  0  0
   -1.7340   -8.0499   32.1097 N   0  0  0  0  0  0  0  0  0  0  0  0
   -1.2680   -7.3650   33.1334 C   0  0  0  0  0  0  0  0  0  0  0  0
   -1.5652   -7.5291   34.4453 N   0  0  0  0  0  0  0  0  0  0  0  0
   -0.3524   -6.4441   32.6765 N   0  0  0  0  0  0  0  0  0  0  0  0
    0.4831   -5.5637   33.3564 C   0  0  0  0  0  0  0  0  0  0  0  0
    1.9910   -5.2109   36.6209 N   0  0  0  0  0  0  0  0  0  0  0  0
    3.0614   -5.8840   37.3518 C   0  0  0  0  0  0  0  0  0  0  0  0
    2.6168   -6.6251   38.5881 C   0  0  0  0  0  0  0  0  0  0  0  0
    3.5376   -6.8166   39.6457 C   0  0  0  0  0  0  0  0  0  0  0  0
    3.1563   -7.4542   40.8304 C   0  0  0  0  0  0  0  0  0  0  0  0
    1.8506   -7.8743   40.9393 C   0  0  0  0  0  0  0  0  0  0  0  0
    0.9561   -7.7222   39.9095 C   0  0  0  0  0  0  0  0  0  0  0  0
    1.3207   -7.1512   38.7096 C   0  0  0  0  0  0  0  0  0  0  0  0
   -0.2921   -8.1481   40.2395 O   0  0  0  0  0  0  0  0  0  0  0  0
   -0.0607   -8.6450   41.5740 C   0  0  0  0  0  0  0  0  0  0  0  0
    1.2897   -8.4415   42.0397 O   0  0  0  0  0  0  0  0  0  0  0  0
   -1.3496   -4.5457   39.4542 H   0  0  0  0  0  0  0  0  0  0  0  0
   -0.8848   -5.3443   37.9402 H   0  0  0  0  0  0  0  0  0  0  0  0
   -1.5684   -3.7192   37.9085 H   0  0  0  0  0  0  0  0  0  0  0  0
    0.3921   -2.7630   38.9902 H   0  0  0  0  0  0  0  0  0  0  0  0
    1.0876   -4.3430   39.3201 H   0  0  0  0  0  0  0  0  0  0  0  0
   -0.0516   -2.7665   33.9693 H   0  0  0  0  0  0  0  0  0  0  0  0
    2.6910   -0.9250   34.9841 H   0  0  0  0  0  0  0  0  0  0  0  0
    7.1252   -1.8432   34.2730 H   0  0  0  0  0  0  0  0  0  0  0  0
    6.7315   -0.1285   34.1309 H   0  0  0  0  0  0  0  0  0  0  0  0
    6.0880   -1.2490   32.9232 H   0  0  0  0  0  0  0  0  0  0  0  0
    5.6738   -3.8707   36.2246 H   0  0  0  0  0  0  0  0  0  0  0  0
    7.0055   -4.8566   35.6000 H   0  0  0  0  0  0  0  0  0  0  0  0
    5.3582   -5.4963   35.5145 H   0  0  0  0  0  0  0  0  0  0  0  0
    3.9252   -5.2481   32.9693 H   0  0  0  0  0  0  0  0  0  0  0  0
    1.9329   -4.1909   30.6368 H   0  0  0  0  0  0  0  0  0  0  0  0
    0.4629   -5.7569   29.4831 H   0  0  0  0  0  0  0  0  0  0  0  0
   -1.7964   -8.5083   34.6603 H   0  0  0  0  0  0  0  0  0  0  0  0
   -0.9340   -7.1611   35.1490 H   0  0  0  0  0  0  0  0  0  0  0  0
    0.4101   -5.5717   34.4337 H   0  0  0  0  0  0  0  0  0  0  0  0
    2.3657   -4.9823   35.7102 H   0  0  0  0  0  0  0  0  0  0  0  0
    3.5069   -6.6314   36.6839 H   0  0  0  0  0  0  0  0  0  0  0  0
    3.8521   -5.1689   37.6028 H   0  0  0  0  0  0  0  0  0  0  0  0
    4.5569   -6.4440   39.5585 H   0  0  0  0  0  0  0  0  0  0  0  0
    3.8531   -7.5849   41.6506 H   0  0  0  0  0  0  0  0  0  0  0  0
    0.5953   -7.0814   37.9083 H   0  0  0  0  0  0  0  0  0  0  0  0
   -0.2901   -9.7147   41.6123 H   0  0  0  0  0  0  0  0  0  0  0  0
   -0.7421   -8.1242   42.2567 H   0  0  0  0  0  0  0  0  0  0  0  0
  1  2  1  0
  2  3  1  0
  3  4  2  0
  3  5  2  0
  5  6  1  0
  6  7  1  0
  7  8  2  0
  8  9  1  0
  9 10  1  0
 10 11  1  0
  9 12  2  0
 12 13  1  0
 13 14  1  0
 12 15  1  0
 15 16  2  0
 16 17  1  0
 17 18  1  0
 18 19  2  0
 19 20  1  0
 20 21  2  0
 21 22  1  0
 22 23  2  0
 23 24  1  0
 23 25  1  0
 25 26  1  0
  3 27  1  0
 27 28  1  0
 28 29  1  0
 29 30  2  0
 30 31  1  0
 31 32  2  0
 32 33  1  0
 33 34  2  0
 33 35  1  0
 35 36  1  0
 36 37  1  0
 16  7  1  0
 26 17  2  0
 34 29  1  0
 25 20  1  0
 37 32  1  0
  1 38  1  0
  1 39  1  0
  1 40  1  0
  2 41  1  0
  2 42  1  0
  6 43  1  0
  8 44  1  0
 11 45  1  0
 11 46  1  0
 11 47  1  0
 14 48  1  0
 14 49  1  0
 14 50  1  0
 15 51  1  0
 18 52  1  0
 19 53  1  0
 24 54  1  0
 24 55  1  0
 26 56  1  0
 27 57  1  0
 28 58  1  0
 28 59  1  0
 30 60  1  0
 31 61  1  0
 34 62  1  0
 36 63  1  0
 36 64  1  0
M  END
>  <Energy>  (992) 
56.355911583632242

>  <compound_id>  (992) 
3800

>  <target_id>  (992) 
1

>  <reference_id>  (992) 
140

>  <inspiration_ids>  (992) 
[132, 140]

>  <energy_score>  (992) 
-73.0758306671191

>  <distance_score>  (992) 
1.0620687967305293

>  <path>  (992) 
/opt/xchem-fragalysis-2/maxwin/BulkDock/SCRATCH/505734/C3800-P140/C3800-P140.minimised.mol

>  <scratch_subdir>  (992) 
/opt/xchem-fragalysis-2/maxwin/BulkDock/SCRATCH/505734/C3800-P140

>  <fragmenstein_runtime>  (992) 
3.224208116531372

>  <fragmenstein_outcome>  (992) 
too moved

>  <fragmenstein_mode>  (992) 
expansion

>  <fragmenstein_error>  (992) 


$$$$
C108-P141
     RDKit          2D

  0  0  0  0  0  0  0  0  0  0999 V2000
M  END
>  <compound_id>  (993) 
108

>  <target_id>  (993) 
1

>  <reference_id>  (993) 
141

>  <inspiration_ids>  (993) 
[132, 141]

>  <energy_score>  (993) 
nan

>  <distance_score>  (993) 
nan

>  <path>  (993) 
/opt/xchem-fragalysis-2/maxwin/BulkDock/SCRATCH/505734/C108-P141/C108-P141.minimised.mol

>  <scratch_subdir>  (993) 
/opt/xchem-fragalysis-2/maxwin/BulkDock/SCRATCH/505734/C108-P141

>  <fragmenstein_runtime>  (993) 
0.3956737518310547

>  <fragmenstein_outcome>  (993) 
too distant

>  <fragmenstein_mode>  (993) 
expansion

>  <fragmenstein_error>  (993) 
DistanceError: hit0+hit1

$$$$
C3801-P142
     RDKit          2D

  0  0  0  0  0  0  0  0  0  0999 V2000
M  END
>  <compound_id>  (994) 
3801

>  <target_id>  (994) 
1

>  <reference_id>  (994) 
142

>  <inspiration_ids>  (994) 
[132, 142]

>  <energy_score>  (994) 
nan

>  <distance_score>  (994) 
nan

>  <path>  (994) 
/opt/xchem-fragalysis-2/maxwin/BulkDock/SCRATCH/505734/C3801-P142/C3801-P142.minimised.mol

>  <scratch_subdir>  (994) 
/opt/xchem-fragalysis-2/maxwin/BulkDock/SCRATCH/505734/C3801-P142

>  <fragmenstein_runtime>  (994) 
0.767301082611084

>  <fragmenstein_outcome>  (994) 
too distant

>  <fragmenstein_mode>  (994) 
expansion

>  <fragmenstein_error>  (994) 
DistanceError: hit0+hit1

$$$$
C3842-P132
     RDKit          3D

 41 44  0  0  0  0  0  0  0  0999 V2000
    1.2659   -7.4507   36.0031 C   0  0  0  0  0  0  0  0  0  0  0  0
    2.0042   -6.5709   35.1076 N   0  0  0  0  0  0  0  0  0  0  0  0
    1.2686   -5.4384   34.5457 C   0  0  0  0  0  0  0  0  0  0  0  0
    0.3280   -4.9241   35.4659 O   0  0  0  0  0  0  0  0  0  0  0  0
    2.2762   -4.3396   34.1167 C   0  0  0  0  0  0  0  0  0  0  0  0
    2.0321   -3.9775   32.7895 C   0  0  0  0  0  0  0  0  0  0  0  0
    2.7098   -2.9502   32.1497 C   0  0  0  0  0  0  0  0  0  0  0  0
    3.7076   -2.2765   32.8444 C   0  0  0  0  0  0  0  0  0  0  0  0
    4.0610   -2.6757   34.1410 C   0  0  0  0  0  0  0  0  0  0  0  0
    5.0553   -2.0626   34.8622 O   0  0  0  0  0  0  0  0  0  0  0  0
    5.9608   -1.2218   34.1516 C   0  0  0  0  0  0  0  0  0  0  0  0
    3.3569   -3.7387   34.7684 C   0  0  0  0  0  0  0  0  0  0  0  0
    3.7068   -4.2275   36.0006 O   0  0  0  0  0  0  0  0  0  0  0  0
    5.0607   -4.6969   36.0380 C   0  0  0  0  0  0  0  0  0  0  0  0
    1.0440   -4.8672   32.2326 C   0  0  0  0  0  0  0  0  0  0  0  0
    0.6322   -5.0209   30.8631 C   0  0  0  0  0  0  0  0  0  0  0  0
   -0.1674   -6.0402   30.5265 C   0  0  0  0  0  0  0  0  0  0  0  0
   -0.6773   -6.9055   31.5211 C   0  0  0  0  0  0  0  0  0  0  0  0
   -1.4367   -7.9692   31.4230 N   0  0  0  0  0  0  0  0  0  0  0  0
   -1.7642   -8.3355   32.6969 N   0  0  0  0  0  0  0  0  0  0  0  0
   -1.2423   -7.4683   33.5385 C   0  0  0  0  0  0  0  0  0  0  0  0
   -1.5595   -7.3450   34.8411 N   0  0  0  0  0  0  0  0  0  0  0  0
   -0.3775   -6.6323   32.8590 N   0  0  0  0  0  0  0  0  0  0  0  0
    0.5800   -5.6773   33.2121 C   0  0  0  0  0  0  0  0  0  0  0  0
    0.6439   -8.1374   35.4398 H   0  0  0  0  0  0  0  0  0  0  0  0
    0.6850   -6.9229   36.7643 H   0  0  0  0  0  0  0  0  0  0  0  0
    1.9903   -8.0690   36.5436 H   0  0  0  0  0  0  0  0  0  0  0  0
    2.7291   -6.1423   35.6887 H   0  0  0  0  0  0  0  0  0  0  0  0
    0.6791   -4.0764   35.7875 H   0  0  0  0  0  0  0  0  0  0  0  0
    2.4747   -2.6655   31.1287 H   0  0  0  0  0  0  0  0  0  0  0  0
    4.2057   -1.4541   32.3411 H   0  0  0  0  0  0  0  0  0  0  0  0
    6.7697   -0.9517   34.8372 H   0  0  0  0  0  0  0  0  0  0  0  0
    5.4679   -0.2959   33.8388 H   0  0  0  0  0  0  0  0  0  0  0  0
    6.4076   -1.7445   33.2993 H   0  0  0  0  0  0  0  0  0  0  0  0
    5.4068   -5.0720   35.0677 H   0  0  0  0  0  0  0  0  0  0  0  0
    5.7231   -3.9100   36.4093 H   0  0  0  0  0  0  0  0  0  0  0  0
    5.1006   -5.5270   36.7501 H   0  0  0  0  0  0  0  0  0  0  0  0
    0.9896   -4.3291   30.1078 H   0  0  0  0  0  0  0  0  0  0  0  0
   -0.4967   -6.1815   29.5136 H   0  0  0  0  0  0  0  0  0  0  0  0
   -1.1032   -6.6382   35.4169 H   0  0  0  0  0  0  0  0  0  0  0  0
   -1.7684   -8.2261   35.3078 H   0  0  0  0  0  0  0  0  0  0  0  0
  1  2  1  0
  2  3  1  0
  3  4  1  0
  3  5  1  0
  5  6  2  0
  6  7  1  0
  7  8  2  0
  8  9  1  0
  9 10  1  0
 10 11  1  0
  9 12  2  0
 12 13  1  0
 13 14  1  0
  6 15  1  0
 15 16  1  0
 16 17  2  0
 17 18  1  0
 18 19  2  0
 19 20  1  0
 20 21  2  0
 21 22  1  0
 21 23  1  0
 23 24  1  0
 24  3  1  0
 12  5  1  0
 24 15  2  0
 23 18  1  0
  1 25  1  0
  1 26  1  0
  1 27  1  0
  2 28  1  0
  4 29  1  0
  7 30  1  0
  8 31  1  0
 11 32  1  0
 11 33  1  0
 11 34  1  0
 14 35  1  0
 14 36  1  0
 14 37  1  0
 16 38  1  0
 17 39  1  0
 22 40  1  0
 22 41  1  0
M  END
>  <Energy>  (995) 
9.476050162815076

>  <compound_id>  (995) 
3842

>  <target_id>  (995) 
1

>  <reference_id>  (995) 
132

>  <inspiration_ids>  (995) 
[132, 144]

>  <energy_score>  (995) 
-45.840922640161196

>  <distance_score>  (995) 
0.8010642259715596

>  <path>  (995) 
/opt/xchem-fragalysis-2/maxwin/BulkDock/SCRATCH/505734/C3842-P132/C3842-P132.minimised.mol

>  <scratch_subdir>  (995) 
/opt/xchem-fragalysis-2/maxwin/BulkDock/SCRATCH/505734/C3842-P132

>  <fragmenstein_runtime>  (995) 
2.234387159347534

>  <fragmenstein_outcome>  (995) 
acceptable

>  <fragmenstein_mode>  (995) 
expansion

>  <fragmenstein_error>  (995) 


$$$$
C3842-P144
     RDKit          3D

 41 44  0  0  0  0  0  0  0  0999 V2000
    1.2197   -7.5030   36.0102 C   0  0  0  0  0  0  0  0  0  0  0  0
    1.9107   -6.6528   35.0449 N   0  0  0  0  0  0  0  0  0  0  0  0
    1.1659   -5.5061   34.5181 C   0  0  0  0  0  0  0  0  0  0  0  0
    0.2434   -5.0018   35.4601 O   0  0  0  0  0  0  0  0  0  0  0  0
    2.1692   -4.4001   34.0865 C   0  0  0  0  0  0  0  0  0  0  0  0
    1.9006   -4.0209   32.7685 C   0  0  0  0  0  0  0  0  0  0  0  0
    2.5727   -2.9885   32.1298 C   0  0  0  0  0  0  0  0  0  0  0  0
    3.5861   -2.3255   32.8140 C   0  0  0  0  0  0  0  0  0  0  0  0
    3.9606   -2.7380   34.1004 C   0  0  0  0  0  0  0  0  0  0  0  0
    4.9673   -2.1315   34.8113 O   0  0  0  0  0  0  0  0  0  0  0  0
    5.8631   -1.2840   34.0957 C   0  0  0  0  0  0  0  0  0  0  0  0
    3.2638   -3.8073   34.7277 C   0  0  0  0  0  0  0  0  0  0  0  0
    3.6310   -4.3093   35.9501 O   0  0  0  0  0  0  0  0  0  0  0  0
    4.9962   -4.7438   35.9847 C   0  0  0  0  0  0  0  0  0  0  0  0
    0.9022   -4.9045   32.2143 C   0  0  0  0  0  0  0  0  0  0  0  0
    0.5046   -5.0689   30.8384 C   0  0  0  0  0  0  0  0  0  0  0  0
   -0.2708   -6.1044   30.4901 C   0  0  0  0  0  0  0  0  0  0  0  0
   -0.7894   -6.9621   31.4910 C   0  0  0  0  0  0  0  0  0  0  0  0
   -1.5430   -8.0279   31.3867 N   0  0  0  0  0  0  0  0  0  0  0  0
   -1.8569   -8.4199   32.6553 N   0  0  0  0  0  0  0  0  0  0  0  0
   -1.3297   -7.5705   33.5102 C   0  0  0  0  0  0  0  0  0  0  0  0
   -1.6092   -7.5150   34.8271 N   0  0  0  0  0  0  0  0  0  0  0  0
   -0.4925   -6.6970   32.8346 N   0  0  0  0  0  0  0  0  0  0  0  0
    0.4540   -5.7290   33.1908 C   0  0  0  0  0  0  0  0  0  0  0  0
    0.5978   -8.2390   35.5114 H   0  0  0  0  0  0  0  0  0  0  0  0
    0.6535   -6.9522   36.7659 H   0  0  0  0  0  0  0  0  0  0  0  0
    1.9770   -8.0743   36.5574 H   0  0  0  0  0  0  0  0  0  0  0  0
    2.6806   -6.2327   35.5720 H   0  0  0  0  0  0  0  0  0  0  0  0
    0.5653   -4.1292   35.7411 H   0  0  0  0  0  0  0  0  0  0  0  0
    2.3214   -2.6921   31.1157 H   0  0  0  0  0  0  0  0  0  0  0  0
    4.0779   -1.4996   32.3101 H   0  0  0  0  0  0  0  0  0  0  0  0
    6.6824   -1.0214   34.7718 H   0  0  0  0  0  0  0  0  0  0  0  0
    5.3660   -0.3550   33.7994 H   0  0  0  0  0  0  0  0  0  0  0  0
    6.2961   -1.7988   33.2315 H   0  0  0  0  0  0  0  0  0  0  0  0
    5.3591   -5.0824   35.0072 H   0  0  0  0  0  0  0  0  0  0  0  0
    5.6344   -3.9506   36.3840 H   0  0  0  0  0  0  0  0  0  0  0  0
    5.0529   -5.5925   36.6734 H   0  0  0  0  0  0  0  0  0  0  0  0
    0.8801   -4.3874   30.0820 H   0  0  0  0  0  0  0  0  0  0  0  0
   -0.5565   -6.2782   29.4613 H   0  0  0  0  0  0  0  0  0  0  0  0
   -1.1323   -6.8357   35.4165 H   0  0  0  0  0  0  0  0  0  0  0  0
   -1.7267   -8.4395   35.2572 H   0  0  0  0  0  0  0  0  0  0  0  0
  1  2  1  0
  2  3  1  0
  3  4  1  0
  3  5  1  0
  5  6  2  0
  6  7  1  0
  7  8  2  0
  8  9  1  0
  9 10  1  0
 10 11  1  0
  9 12  2  0
 12 13  1  0
 13 14  1  0
  6 15  1  0
 15 16  1  0
 16 17  2  0
 17 18  1  0
 18 19  2  0
 19 20  1  0
 20 21  2  0
 21 22  1  0
 21 23  1  0
 23 24  1  0
 24  3  1  0
 12  5  1  0
 24 15  2  0
 23 18  1  0
  1 25  1  0
  1 26  1  0
  1 27  1  0
  2 28  1  0
  4 29  1  0
  7 30  1  0
  8 31  1  0
 11 32  1  0
 11 33  1  0
 11 34  1  0
 14 35  1  0
 14 36  1  0
 14 37  1  0
 16 38  1  0
 17 39  1  0
 22 40  1  0
 22 41  1  0
M  END
>  <Energy>  (996) 
10.775659594938126

>  <compound_id>  (996) 
3842

>  <target_id>  (996) 
1

>  <reference_id>  (996) 
144

>  <inspiration_ids>  (996) 
[132, 144]

>  <energy_score>  (996) 
-44.54131320803869

>  <distance_score>  (996) 
0.7983561572704505

>  <path>  (996) 
/opt/xchem-fragalysis-2/maxwin/BulkDock/SCRATCH/505734/C3842-P144/C3842-P144.minimised.mol

>  <scratch_subdir>  (996) 
/opt/xchem-fragalysis-2/maxwin/BulkDock/SCRATCH/505734/C3842-P144

>  <fragmenstein_runtime>  (996) 
1.7654526233673096

>  <fragmenstein_outcome>  (996) 
acceptable

>  <fragmenstein_mode>  (996) 
expansion

>  <fragmenstein_error>  (996) 


$$$$
C3805-P132
     RDKit          3D

 65 68  0  0  0  0  0  0  0  0999 V2000
    4.0673   -2.5415   28.1886 C   0  0  0  0  0  0  0  0  0  0  0  0
    2.7179   -2.3867   28.6302 O   0  0  0  0  0  0  0  0  0  0  0  0
    1.9139   -3.4621   28.3923 C   0  0  0  0  0  0  0  0  0  0  0  0
    2.2857   -4.4960   27.8475 O   0  0  0  0  0  0  0  0  0  0  0  0
    0.5079   -3.2487   28.9493 C   0  0  0  0  0  0  0  0  0  0  0  0
    0.1063   -1.8844   28.8510 N   0  0  0  0  0  0  0  0  0  0  0  0
   -0.8386   -1.0274   29.7682 C   0  0  0  0  0  0  0  0  0  0  0  0
   -1.3824   -1.3032   30.8160 N   0  0  0  0  0  0  0  0  0  0  0  0
   -1.5021   -2.6019   31.4886 C   0  0  0  0  0  0  0  0  0  0  0  0
   -0.8392   -2.6626   32.8954 C   0  0  0  0  0  0  0  0  0  0  0  0
   -0.6396   -4.0609   33.4252 N   0  0  0  0  0  0  0  0  0  0  0  0
    0.1091   -5.0037   32.6945 C   0  0  0  0  0  0  0  0  0  0  0  0
    1.3518   -4.7824   32.1765 C   0  0  0  0  0  0  0  0  0  0  0  0
    2.3000   -3.8076   32.7587 C   0  0  0  0  0  0  0  0  0  0  0  0
    2.5457   -2.5610   32.1762 C   0  0  0  0  0  0  0  0  0  0  0  0
    3.4844   -1.6979   32.7382 C   0  0  0  0  0  0  0  0  0  0  0  0
    4.2241   -2.1051   33.8482 C   0  0  0  0  0  0  0  0  0  0  0  0
    5.1129   -1.2177   34.3989 O   0  0  0  0  0  0  0  0  0  0  0  0
    6.3837   -1.3375   33.7631 C   0  0  0  0  0  0  0  0  0  0  0  0
    4.0260   -3.3649   34.4255 C   0  0  0  0  0  0  0  0  0  0  0  0
    4.8080   -3.6758   35.5064 O   0  0  0  0  0  0  0  0  0  0  0  0
    5.0199   -5.0585   35.7581 C   0  0  0  0  0  0  0  0  0  0  0  0
    3.0489   -4.2044   33.8843 C   0  0  0  0  0  0  0  0  0  0  0  0
    1.7615   -5.5788   31.0185 C   0  0  0  0  0  0  0  0  0  0  0  0
    0.9691   -6.5173   30.4765 C   0  0  0  0  0  0  0  0  0  0  0  0
   -0.1680   -6.9448   31.1856 C   0  0  0  0  0  0  0  0  0  0  0  0
   -0.9918   -7.9537   31.0186 N   0  0  0  0  0  0  0  0  0  0  0  0
   -1.7008   -8.0832   32.1844 N   0  0  0  0  0  0  0  0  0  0  0  0
   -1.3224   -7.1287   33.0093 C   0  0  0  0  0  0  0  0  0  0  0  0
   -1.5555   -7.0858   34.3444 N   0  0  0  0  0  0  0  0  0  0  0  0
   -0.4968   -6.2402   32.3326 N   0  0  0  0  0  0  0  0  0  0  0  0
   -0.9317    0.2992   29.1427 C   0  0  0  0  0  0  0  0  0  0  0  0
   -1.4799    0.6228   27.8641 C   0  0  0  0  0  0  0  0  0  0  0  0
   -1.2950    1.9762   27.7293 C   0  0  0  0  0  0  0  0  0  0  0  0
   -1.6916    2.9955   26.7387 C   0  0  0  0  0  0  0  0  0  0  0  0
   -0.5534    2.4153   28.7826 O   0  0  0  0  0  0  0  0  0  0  0  0
   -0.3070    1.3680   29.6570 N   0  0  0  0  0  0  0  0  0  0  0  0
    4.6011   -1.6106   28.3983 H   0  0  0  0  0  0  0  0  0  0  0  0
    4.5546   -3.3530   28.7379 H   0  0  0  0  0  0  0  0  0  0  0  0
    4.1029   -2.7270   27.1109 H   0  0  0  0  0  0  0  0  0  0  0  0
   -0.2002   -3.8851   28.4174 H   0  0  0  0  0  0  0  0  0  0  0  0
    0.5548   -3.5447   29.9854 H   0  0  0  0  0  0  0  0  0  0  0  0
    0.4494   -1.3065   28.0845 H   0  0  0  0  0  0  0  0  0  0  0  0
   -2.5750   -2.7780   31.6394 H   0  0  0  0  0  0  0  0  0  0  0  0
   -1.1972   -3.4306   30.8543 H   0  0  0  0  0  0  0  0  0  0  0  0
    0.1052   -2.1190   32.8988 H   0  0  0  0  0  0  0  0  0  0  0  0
   -1.4823   -2.1327   33.6084 H   0  0  0  0  0  0  0  0  0  0  0  0
   -1.5424   -4.4310   33.7549 H   0  0  0  0  0  0  0  0  0  0  0  0
    1.9868   -2.2230   31.3092 H   0  0  0  0  0  0  0  0  0  0  0  0
    3.6355   -0.7082   32.3153 H   0  0  0  0  0  0  0  0  0  0  0  0
    6.3250   -1.0553   32.7062 H   0  0  0  0  0  0  0  0  0  0  0  0
    6.7881   -2.3508   33.8639 H   0  0  0  0  0  0  0  0  0  0  0  0
    7.0732   -0.6478   34.2590 H   0  0  0  0  0  0  0  0  0  0  0  0
    5.8349   -5.1461   36.4830 H   0  0  0  0  0  0  0  0  0  0  0  0
    5.3205   -5.5931   34.8503 H   0  0  0  0  0  0  0  0  0  0  0  0
    4.1285   -5.5120   36.2027 H   0  0  0  0  0  0  0  0  0  0  0  0
    2.8478   -5.1732   34.3293 H   0  0  0  0  0  0  0  0  0  0  0  0
    2.6994   -5.3176   30.5325 H   0  0  0  0  0  0  0  0  0  0  0  0
    1.2633   -7.0424   29.5786 H   0  0  0  0  0  0  0  0  0  0  0  0
   -0.9354   -6.5095   34.9117 H   0  0  0  0  0  0  0  0  0  0  0  0
   -1.6742   -8.0196   34.7449 H   0  0  0  0  0  0  0  0  0  0  0  0
   -1.9734   -0.0463   27.1754 H   0  0  0  0  0  0  0  0  0  0  0  0
   -0.8219    3.3273   26.1639 H   0  0  0  0  0  0  0  0  0  0  0  0
   -2.1324    3.8650   27.2356 H   0  0  0  0  0  0  0  0  0  0  0  0
   -2.4311    2.5921   26.0399 H   0  0  0  0  0  0  0  0  0  0  0  0
  1  2  1  0
  2  3  1  0
  3  4  2  0
  3  5  1  0
  5  6  1  0
  6  7  1  0
  7  8  2  3
  8  9  1  0
  9 10  1  0
 10 11  1  0
 11 12  1  0
 12 13  2  0
 13 14  1  0
 14 15  2  0
 15 16  1  0
 16 17  2  0
 17 18  1  0
 18 19  1  0
 17 20  1  0
 20 21  1  0
 21 22  1  0
 20 23  2  0
 13 24  1  0
 24 25  2  0
 25 26  1  0
 26 27  2  0
 27 28  1  0
 28 29  2  0
 29 30  1  0
 29 31  1  0
  7 32  1  0
 32 33  1  0
 33 34  2  0
 34 35  1  0
 34 36  1  0
 36 37  1  0
 31 12  1  0
 37 32  2  0
 23 14  1  0
 31 26  1  0
  1 38  1  0
  1 39  1  0
  1 40  1  0
  5 41  1  0
  5 42  1  0
  6 43  1  0
  9 44  1  0
  9 45  1  0
 10 46  1  0
 10 47  1  0
 11 48  1  0
 15 49  1  0
 16 50  1  0
 19 51  1  0
 19 52  1  0
 19 53  1  0
 22 54  1  0
 22 55  1  0
 22 56  1  0
 23 57  1  0
 24 58  1  0
 25 59  1  0
 30 60  1  0
 30 61  1  0
 33 62  1  0
 35 63  1  0
 35 64  1  0
 35 65  1  0
M  END
>  <Energy>  (997) 
214.76315193015216

>  <compound_id>  (997) 
3805

>  <target_id>  (997) 
1

>  <reference_id>  (997) 
132

>  <inspiration_ids>  (997) 
[132, 147]

>  <energy_score>  (997) 
-95.77410865115098

>  <distance_score>  (997) 
1.156490693803497

>  <path>  (997) 
/opt/xchem-fragalysis-2/maxwin/BulkDock/SCRATCH/505734/C3805-P132/C3805-P132.minimised.mol

>  <scratch_subdir>  (997) 
/opt/xchem-fragalysis-2/maxwin/BulkDock/SCRATCH/505734/C3805-P132

>  <fragmenstein_runtime>  (997) 
6.402143239974976

>  <fragmenstein_outcome>  (997) 
too moved

>  <fragmenstein_mode>  (997) 
expansion

>  <fragmenstein_error>  (997) 


$$$$
C3805-P147
     RDKit          3D

 65 68  0  0  0  0  0  0  0  0999 V2000
    3.8908   -2.0737   28.3021 C   0  0  0  0  0  0  0  0  0  0  0  0
    2.5149   -2.0553   28.6829 O   0  0  0  0  0  0  0  0  0  0  0  0
    1.8388   -3.2148   28.4469 C   0  0  0  0  0  0  0  0  0  0  0  0
    2.3430   -4.2209   27.9583 O   0  0  0  0  0  0  0  0  0  0  0  0
    0.3936   -3.1404   28.9413 C   0  0  0  0  0  0  0  0  0  0  0  0
   -0.1401   -1.8298   28.7865 N   0  0  0  0  0  0  0  0  0  0  0  0
   -0.9955   -0.9501   29.7694 C   0  0  0  0  0  0  0  0  0  0  0  0
   -1.4674   -1.2128   30.8553 N   0  0  0  0  0  0  0  0  0  0  0  0
   -1.5955   -2.5108   31.5311 C   0  0  0  0  0  0  0  0  0  0  0  0
   -0.9487   -2.5617   32.9493 C   0  0  0  0  0  0  0  0  0  0  0  0
   -0.7481   -3.9559   33.4955 N   0  0  0  0  0  0  0  0  0  0  0  0
   -0.0025   -4.9053   32.7716 C   0  0  0  0  0  0  0  0  0  0  0  0
    1.2207   -4.6705   32.2166 C   0  0  0  0  0  0  0  0  0  0  0  0
    2.1963   -3.7179   32.7889 C   0  0  0  0  0  0  0  0  0  0  0  0
    2.4410   -2.4643   32.2221 C   0  0  0  0  0  0  0  0  0  0  0  0
    3.4134   -1.6284   32.7674 C   0  0  0  0  0  0  0  0  0  0  0  0
    4.1842   -2.0683   33.8437 C   0  0  0  0  0  0  0  0  0  0  0  0
    5.1017   -1.1995   34.3771 O   0  0  0  0  0  0  0  0  0  0  0  0
    6.3686   -1.3732   33.7465 C   0  0  0  0  0  0  0  0  0  0  0  0
    3.9852   -3.3351   34.4060 C   0  0  0  0  0  0  0  0  0  0  0  0
    4.7980   -3.6743   35.4551 O   0  0  0  0  0  0  0  0  0  0  0  0
    4.9573   -5.0613   35.7206 C   0  0  0  0  0  0  0  0  0  0  0  0
    2.9776   -4.1486   33.8809 C   0  0  0  0  0  0  0  0  0  0  0  0
    1.5711   -5.4251   31.0152 C   0  0  0  0  0  0  0  0  0  0  0  0
    0.7653   -6.3651   30.4999 C   0  0  0  0  0  0  0  0  0  0  0  0
   -0.3063   -6.8432   31.2701 C   0  0  0  0  0  0  0  0  0  0  0  0
   -1.0879   -7.8885   31.1422 N   0  0  0  0  0  0  0  0  0  0  0  0
   -1.7278   -8.0475   32.3419 N   0  0  0  0  0  0  0  0  0  0  0  0
   -1.3615   -7.0703   33.1458 C   0  0  0  0  0  0  0  0  0  0  0  0
   -1.5591   -7.0258   34.4861 N   0  0  0  0  0  0  0  0  0  0  0  0
   -0.5998   -6.1531   32.4338 N   0  0  0  0  0  0  0  0  0  0  0  0
   -1.0696    0.3839   29.1572 C   0  0  0  0  0  0  0  0  0  0  0  0
   -1.6709    0.7399   27.9120 C   0  0  0  0  0  0  0  0  0  0  0  0
   -1.3988    2.0754   27.7537 C   0  0  0  0  0  0  0  0  0  0  0  0
   -1.7743    3.1098   26.7724 C   0  0  0  0  0  0  0  0  0  0  0  0
   -0.5763    2.4710   28.7636 O   0  0  0  0  0  0  0  0  0  0  0  0
   -0.3478    1.4121   29.6283 N   0  0  0  0  0  0  0  0  0  0  0  0
    3.9957   -2.2980   27.2364 H   0  0  0  0  0  0  0  0  0  0  0  0
    4.3078   -1.0806   28.4903 H   0  0  0  0  0  0  0  0  0  0  0  0
    4.4402   -2.8019   28.9067 H   0  0  0  0  0  0  0  0  0  0  0  0
   -0.2191   -3.8631   28.3998 H   0  0  0  0  0  0  0  0  0  0  0  0
    0.4323   -3.4009   29.9870 H   0  0  0  0  0  0  0  0  0  0  0  0
    0.0182   -1.3144   27.9209 H   0  0  0  0  0  0  0  0  0  0  0  0
   -2.6701   -2.6874   31.6706 H   0  0  0  0  0  0  0  0  0  0  0  0
   -1.2804   -3.3431   30.9066 H   0  0  0  0  0  0  0  0  0  0  0  0
   -0.0056   -2.0156   32.9610 H   0  0  0  0  0  0  0  0  0  0  0  0
   -1.6023   -2.0287   33.6503 H   0  0  0  0  0  0  0  0  0  0  0  0
   -1.6555   -4.3225   33.8211 H   0  0  0  0  0  0  0  0  0  0  0  0
    1.8562   -2.1004   31.3828 H   0  0  0  0  0  0  0  0  0  0  0  0
    3.5660   -0.6325   32.3596 H   0  0  0  0  0  0  0  0  0  0  0  0
    6.7536   -2.3884   33.8925 H   0  0  0  0  0  0  0  0  0  0  0  0
    7.0724   -0.6753   34.2099 H   0  0  0  0  0  0  0  0  0  0  0  0
    6.3137   -1.1384   32.6777 H   0  0  0  0  0  0  0  0  0  0  0  0
    5.7846   -5.1746   36.4276 H   0  0  0  0  0  0  0  0  0  0  0  0
    5.2138   -5.6181   34.8127 H   0  0  0  0  0  0  0  0  0  0  0  0
    4.0580   -5.4713   36.1909 H   0  0  0  0  0  0  0  0  0  0  0  0
    2.7768   -5.1236   34.3127 H   0  0  0  0  0  0  0  0  0  0  0  0
    2.4611   -5.1156   30.4737 H   0  0  0  0  0  0  0  0  0  0  0  0
    0.9972   -6.8552   29.5697 H   0  0  0  0  0  0  0  0  0  0  0  0
   -0.9471   -6.4182   35.0296 H   0  0  0  0  0  0  0  0  0  0  0  0
   -1.6184   -7.9614   34.8958 H   0  0  0  0  0  0  0  0  0  0  0  0
   -2.2425    0.1051   27.2526 H   0  0  0  0  0  0  0  0  0  0  0  0
   -0.9116    3.3846   26.1582 H   0  0  0  0  0  0  0  0  0  0  0  0
   -2.1393    4.0074   27.2807 H   0  0  0  0  0  0  0  0  0  0  0  0
   -2.5666    2.7490   26.1090 H   0  0  0  0  0  0  0  0  0  0  0  0
  1  2  1  0
  2  3  1  0
  3  4  2  0
  3  5  1  0
  5  6  1  0
  6  7  1  0
  7  8  2  3
  8  9  1  0
  9 10  1  0
 10 11  1  0
 11 12  1  0
 12 13  2  0
 13 14  1  0
 14 15  2  0
 15 16  1  0
 16 17  2  0
 17 18  1  0
 18 19  1  0
 17 20  1  0
 20 21  1  0
 21 22  1  0
 20 23  2  0
 13 24  1  0
 24 25  2  0
 25 26  1  0
 26 27  2  0
 27 28  1  0
 28 29  2  0
 29 30  1  0
 29 31  1  0
  7 32  1  0
 32 33  1  0
 33 34  2  0
 34 35  1  0
 34 36  1  0
 36 37  1  0
 31 12  1  0
 37 32  2  0
 23 14  1  0
 31 26  1  0
  1 38  1  0
  1 39  1  0
  1 40  1  0
  5 41  1  0
  5 42  1  0
  6 43  1  0
  9 44  1  0
  9 45  1  0
 10 46  1  0
 10 47  1  0
 11 48  1  0
 15 49  1  0
 16 50  1  0
 19 51  1  0
 19 52  1  0
 19 53  1  0
 22 54  1  0
 22 55  1  0
 22 56  1  0
 23 57  1  0
 24 58  1  0
 25 59  1  0
 30 60  1  0
 30 61  1  0
 33 62  1  0
 35 63  1  0
 35 64  1  0
 35 65  1  0
M  END
>  <Energy>  (998) 
219.28992822829807

>  <compound_id>  (998) 
3805

>  <target_id>  (998) 
1

>  <reference_id>  (998) 
147

>  <inspiration_ids>  (998) 
[132, 147]

>  <energy_score>  (998) 
-91.24733235301136

>  <distance_score>  (998) 
1.1190224253089522

>  <path>  (998) 
/opt/xchem-fragalysis-2/maxwin/BulkDock/SCRATCH/505734/C3805-P147/C3805-P147.minimised.mol

>  <scratch_subdir>  (998) 
/opt/xchem-fragalysis-2/maxwin/BulkDock/SCRATCH/505734/C3805-P147

>  <fragmenstein_runtime>  (998) 
4.944405794143677

>  <fragmenstein_outcome>  (998) 
too moved

>  <fragmenstein_mode>  (998) 
expansion

>  <fragmenstein_error>  (998) 


$$$$
C3844-P132
     RDKit          3D

 65 69  0  0  0  0  0  0  0  0999 V2000
    6.0248   -1.0220   34.2615 C   0  0  0  0  0  0  0  0  0  0  0  0
    5.0240   -1.4598   35.1847 O   0  0  0  0  0  0  0  0  0  0  0  0
    4.2360   -2.4690   34.7140 C   0  0  0  0  0  0  0  0  0  0  0  0
    2.9364   -2.5279   35.1840 C   0  0  0  0  0  0  0  0  0  0  0  0
    2.1023   -3.5912   34.8031 C   0  0  0  0  0  0  0  0  0  0  0  0
    1.0456   -4.0005   35.6520 N   0  0  0  0  0  0  0  0  0  0  0  0
    1.4200   -4.2993   37.0730 C   0  0  0  0  0  0  0  0  0  0  0  0
    2.7149   -5.1582   37.3494 C   0  0  0  0  0  0  0  0  0  0  0  0
    2.7002   -5.7569   38.7663 C   0  0  0  0  0  0  0  0  0  0  0  0
    3.3050   -7.1234   38.6103 C   0  0  0  0  0  0  0  0  0  0  0  0
    2.8754   -7.5116   37.2010 C   0  0  0  0  0  0  0  0  0  0  0  0
    3.7731   -8.5096   36.6081 C   0  0  0  0  0  0  0  0  0  0  0  0
    4.4462   -9.3368   37.4071 N   0  0  0  0  0  0  0  0  0  0  0  0
    5.2322  -10.0342   36.5357 O   0  0  0  0  0  0  0  0  0  0  0  0
    4.9525   -9.5858   35.2845 C   0  0  0  0  0  0  0  0  0  0  0  0
    5.8605  -10.1187   34.2334 C   0  0  0  0  0  0  0  0  0  0  0  0
    6.1287  -11.6125   34.4489 C   0  0  0  0  0  0  0  0  0  0  0  0
    7.1521   -9.2939   34.2756 C   0  0  0  0  0  0  0  0  0  0  0  0
    3.9915   -8.6890   35.2536 N   0  0  0  0  0  0  0  0  0  0  0  0
    2.9935   -6.2723   36.4465 N   0  0  0  0  0  0  0  0  0  0  0  0
    2.4257   -4.3498   33.6610 C   0  0  0  0  0  0  0  0  0  0  0  0
    1.4755   -5.1795   32.8774 C   0  0  0  0  0  0  0  0  0  0  0  0
    1.4413   -5.1446   31.4030 C   0  0  0  0  0  0  0  0  0  0  0  0
    0.6002   -5.9061   30.6776 C   0  0  0  0  0  0  0  0  0  0  0  0
   -0.2917   -6.7867   31.3379 C   0  0  0  0  0  0  0  0  0  0  0  0
   -1.1605   -7.6775   30.9128 N   0  0  0  0  0  0  0  0  0  0  0  0
   -1.7617   -8.2275   32.0242 N   0  0  0  0  0  0  0  0  0  0  0  0
   -1.2698   -7.6473   33.0989 C   0  0  0  0  0  0  0  0  0  0  0  0
   -1.5943   -7.8789   34.3959 N   0  0  0  0  0  0  0  0  0  0  0  0
   -0.2945   -6.7525   32.7200 N   0  0  0  0  0  0  0  0  0  0  0  0
    0.5732   -5.9788   33.4790 C   0  0  0  0  0  0  0  0  0  0  0  0
    3.7657   -4.3616   33.2926 C   0  0  0  0  0  0  0  0  0  0  0  0
    4.6718   -3.5349   33.9460 C   0  0  0  0  0  0  0  0  0  0  0  0
    5.9921   -3.8826   33.9223 O   0  0  0  0  0  0  0  0  0  0  0  0
    6.2402   -4.7810   35.0178 C   0  0  0  0  0  0  0  0  0  0  0  0
    6.9363   -1.6156   34.3757 H   0  0  0  0  0  0  0  0  0  0  0  0
    6.2738    0.0133   34.5149 H   0  0  0  0  0  0  0  0  0  0  0  0
    5.6721   -1.0329   33.2239 H   0  0  0  0  0  0  0  0  0  0  0  0
    2.6270   -1.8302   35.9569 H   0  0  0  0  0  0  0  0  0  0  0  0
    0.3591   -3.2412   35.6671 H   0  0  0  0  0  0  0  0  0  0  0  0
    1.4984   -3.3562   37.6288 H   0  0  0  0  0  0  0  0  0  0  0  0
    0.5546   -4.8301   37.4880 H   0  0  0  0  0  0  0  0  0  0  0  0
    3.5744   -4.4810   37.2751 H   0  0  0  0  0  0  0  0  0  0  0  0
    3.2616   -5.1413   39.4765 H   0  0  0  0  0  0  0  0  0  0  0  0
    1.6762   -5.8560   39.1457 H   0  0  0  0  0  0  0  0  0  0  0  0
    2.9433   -7.8237   39.3707 H   0  0  0  0  0  0  0  0  0  0  0  0
    4.3961   -7.0466   38.7117 H   0  0  0  0  0  0  0  0  0  0  0  0
    1.8365   -7.8624   37.1961 H   0  0  0  0  0  0  0  0  0  0  0  0
    5.3876  -10.0091   33.2565 H   0  0  0  0  0  0  0  0  0  0  0  0
    5.1891  -12.1722   34.5204 H   0  0  0  0  0  0  0  0  0  0  0  0
    6.6999  -12.0429   33.6246 H   0  0  0  0  0  0  0  0  0  0  0  0
    6.6948  -11.7963   35.3693 H   0  0  0  0  0  0  0  0  0  0  0  0
    7.8764   -9.6105   33.5266 H   0  0  0  0  0  0  0  0  0  0  0  0
    6.9405   -8.2327   34.0981 H   0  0  0  0  0  0  0  0  0  0  0  0
    7.6424   -9.3687   35.2538 H   0  0  0  0  0  0  0  0  0  0  0  0
    2.3794   -6.2519   35.6379 H   0  0  0  0  0  0  0  0  0  0  0  0
    2.1014   -4.4420   30.8999 H   0  0  0  0  0  0  0  0  0  0  0  0
    0.5747   -5.8357   29.5999 H   0  0  0  0  0  0  0  0  0  0  0  0
   -0.9274   -7.6220   35.1138 H   0  0  0  0  0  0  0  0  0  0  0  0
   -1.8797   -8.8558   34.5422 H   0  0  0  0  0  0  0  0  0  0  0  0
    0.4712   -6.0673   34.5488 H   0  0  0  0  0  0  0  0  0  0  0  0
    4.1403   -5.0712   32.5674 H   0  0  0  0  0  0  0  0  0  0  0  0
    5.6891   -5.7197   34.8925 H   0  0  0  0  0  0  0  0  0  0  0  0
    6.0032   -4.3168   35.9816 H   0  0  0  0  0  0  0  0  0  0  0  0
    7.3087   -5.0169   35.0123 H   0  0  0  0  0  0  0  0  0  0  0  0
  1  2  1  0
  2  3  1  0
  3  4  2  0
  4  5  1  0
  5  6  1  0
  6  7  1  0
  7  8  1  0
  8  9  1  0
  9 10  1  0
 10 11  1  0
 11 12  1  0
 12 13  2  0
 13 14  1  0
 14 15  1  0
 15 16  1  0
 16 17  1  0
 16 18  1  0
 15 19  2  0
 11 20  1  0
  5 21  2  0
 21 22  1  0
 22 23  1  0
 23 24  2  0
 24 25  1  0
 25 26  2  0
 26 27  1  0
 27 28  2  0
 28 29  1  0
 28 30  1  0
 30 31  1  0
 21 32  1  0
 32 33  2  0
 33 34  1  0
 34 35  1  0
 33  3  1  0
 20  8  1  0
 31 22  2  0
 19 12  1  0
 30 25  1  0
  1 36  1  0
  1 37  1  0
  1 38  1  0
  4 39  1  0
  6 40  1  0
  7 41  1  0
  7 42  1  0
  8 43  1  0
  9 44  1  0
  9 45  1  0
 10 46  1  0
 10 47  1  0
 11 48  1  0
 16 49  1  0
 17 50  1  0
 17 51  1  0
 17 52  1  0
 18 53  1  0
 18 54  1  0
 18 55  1  0
 20 56  1  0
 23 57  1  0
 24 58  1  0
 29 59  1  0
 29 60  1  0
 31 61  1  0
 32 62  1  0
 35 63  1  0
 35 64  1  0
 35 65  1  0
M  END
>  <Energy>  (999) 
172.18767828561934

>  <compound_id>  (999) 
3844

>  <target_id>  (999) 
1

>  <reference_id>  (999) 
132

>  <inspiration_ids>  (999) 
[132, 148]

>  <energy_score>  (999) 
-32.54845184853659

>  <distance_score>  (999) 
2.222506538534411

>  <path>  (999) 
/opt/xchem-fragalysis-2/maxwin/BulkDock/SCRATCH/505734/C3844-P132/C3844-P132.minimised.mol

>  <scratch_subdir>  (999) 
/opt/xchem-fragalysis-2/maxwin/BulkDock/SCRATCH/505734/C3844-P132

>  <fragmenstein_runtime>  (999) 
4.139413595199585

>  <fragmenstein_outcome>  (999) 
too moved

>  <fragmenstein_mode>  (999) 
expansion

>  <fragmenstein_error>  (999) 


$$$$
C3844-P148
     RDKit          3D

 65 69  0  0  0  0  0  0  0  0999 V2000
    6.3565   -0.8262   33.8016 C   0  0  0  0  0  0  0  0  0  0  0  0
    5.6882   -1.4835   34.8755 O   0  0  0  0  0  0  0  0  0  0  0  0
    4.9336   -2.5443   34.4709 C   0  0  0  0  0  0  0  0  0  0  0  0
    5.4050   -3.5272   33.6330 C   0  0  0  0  0  0  0  0  0  0  0  0
    4.6291   -4.6787   33.4318 C   0  0  0  0  0  0  0  0  0  0  0  0
    5.3665   -5.9052   33.3624 N   0  0  0  0  0  0  0  0  0  0  0  0
    6.0859   -6.3829   34.6166 C   0  0  0  0  0  0  0  0  0  0  0  0
    5.6087   -7.8313   35.0852 C   0  0  0  0  0  0  0  0  0  0  0  0
    6.1121   -8.3346   36.4689 C   0  0  0  0  0  0  0  0  0  0  0  0
    4.8690   -8.3621   37.3811 C   0  0  0  0  0  0  0  0  0  0  0  0
    4.0152   -7.3635   36.6610 C   0  0  0  0  0  0  0  0  0  0  0  0
    2.6154   -7.0957   37.0040 C   0  0  0  0  0  0  0  0  0  0  0  0
    1.5821   -7.9269   36.8508 N   0  0  0  0  0  0  0  0  0  0  0  0
    0.4726   -7.1065   37.0638 O   0  0  0  0  0  0  0  0  0  0  0  0
    0.9584   -5.8503   37.2708 C   0  0  0  0  0  0  0  0  0  0  0  0
    0.0013   -4.7408   37.5340 C   0  0  0  0  0  0  0  0  0  0  0  0
   -0.6271   -4.8853   38.9155 C   0  0  0  0  0  0  0  0  0  0  0  0
   -1.0506   -4.6312   36.4375 C   0  0  0  0  0  0  0  0  0  0  0  0
    2.2620   -5.7918   37.2124 N   0  0  0  0  0  0  0  0  0  0  0  0
    4.1488   -7.8145   35.2678 N   0  0  0  0  0  0  0  0  0  0  0  0
    3.2277   -4.6271   33.6658 C   0  0  0  0  0  0  0  0  0  0  0  0
    2.1575   -5.3596   32.9158 C   0  0  0  0  0  0  0  0  0  0  0  0
    1.9071   -5.1310   31.4776 C   0  0  0  0  0  0  0  0  0  0  0  0
    0.8924   -5.7161   30.8065 C   0  0  0  0  0  0  0  0  0  0  0  0
    0.0049   -6.5842   31.4939 C   0  0  0  0  0  0  0  0  0  0  0  0
   -0.9900   -7.3502   31.1011 N   0  0  0  0  0  0  0  0  0  0  0  0
   -1.5478   -7.9151   32.2252 N   0  0  0  0  0  0  0  0  0  0  0  0
   -0.8758   -7.4999   33.2789 C   0  0  0  0  0  0  0  0  0  0  0  0
   -1.1025   -7.8254   34.5742 N   0  0  0  0  0  0  0  0  0  0  0  0
    0.1757   -6.7001   32.8629 N   0  0  0  0  0  0  0  0  0  0  0  0
    1.2361   -6.1111   33.5591 C   0  0  0  0  0  0  0  0  0  0  0  0
    2.8061   -3.6926   34.6003 C   0  0  0  0  0  0  0  0  0  0  0  0
    3.7344   -2.7995   35.1167 C   0  0  0  0  0  0  0  0  0  0  0  0
    3.5210   -2.3411   36.3843 O   0  0  0  0  0  0  0  0  0  0  0  0
    4.3839   -3.0852   37.2635 C   0  0  0  0  0  0  0  0  0  0  0  0
    5.7019   -0.6927   32.9327 H   0  0  0  0  0  0  0  0  0  0  0  0
    7.2659   -1.3675   33.5225 H   0  0  0  0  0  0  0  0  0  0  0  0
    6.6544    0.1666   34.1524 H   0  0  0  0  0  0  0  0  0  0  0  0
    6.4500   -3.5200   33.3387 H   0  0  0  0  0  0  0  0  0  0  0  0
    6.0969   -5.7627   32.6602 H   0  0  0  0  0  0  0  0  0  0  0  0
    7.1570   -6.4399   34.3880 H   0  0  0  0  0  0  0  0  0  0  0  0
    5.9760   -5.6516   35.4243 H   0  0  0  0  0  0  0  0  0  0  0  0
    5.8707   -8.5507   34.3014 H   0  0  0  0  0  0  0  0  0  0  0  0
    6.5450   -9.3379   36.3961 H   0  0  0  0  0  0  0  0  0  0  0  0
    6.8741   -7.6582   36.8719 H   0  0  0  0  0  0  0  0  0  0  0  0
    5.1094   -8.0683   38.4072 H   0  0  0  0  0  0  0  0  0  0  0  0
    4.4182   -9.3610   37.4041 H   0  0  0  0  0  0  0  0  0  0  0  0
    4.5103   -6.3896   36.7772 H   0  0  0  0  0  0  0  0  0  0  0  0
    0.5725   -3.8029   37.5311 H   0  0  0  0  0  0  0  0  0  0  0  0
   -1.3261   -4.0668   39.1160 H   0  0  0  0  0  0  0  0  0  0  0  0
   -1.1675   -5.8301   39.0137 H   0  0  0  0  0  0  0  0  0  0  0  0
    0.1417   -4.8681   39.6965 H   0  0  0  0  0  0  0  0  0  0  0  0
   -1.6438   -5.5453   36.3540 H   0  0  0  0  0  0  0  0  0  0  0  0
   -0.5853   -4.4539   35.4624 H   0  0  0  0  0  0  0  0  0  0  0  0
   -1.7314   -3.7971   36.6355 H   0  0  0  0  0  0  0  0  0  0  0  0
    3.7794   -7.0767   34.6610 H   0  0  0  0  0  0  0  0  0  0  0  0
    2.5735   -4.4436   30.9619 H   0  0  0  0  0  0  0  0  0  0  0  0
    0.7238   -5.5210   29.7539 H   0  0  0  0  0  0  0  0  0  0  0  0
   -1.5705   -8.7359   34.6692 H   0  0  0  0  0  0  0  0  0  0  0  0
   -0.3125   -7.8219   35.2181 H   0  0  0  0  0  0  0  0  0  0  0  0
    1.2655   -6.2887   34.6185 H   0  0  0  0  0  0  0  0  0  0  0  0
    1.7968   -3.6945   34.9973 H   0  0  0  0  0  0  0  0  0  0  0  0
    4.4652   -4.1424   36.9952 H   0  0  0  0  0  0  0  0  0  0  0  0
    3.9520   -3.0283   38.2675 H   0  0  0  0  0  0  0  0  0  0  0  0
    5.3762   -2.6241   37.3015 H   0  0  0  0  0  0  0  0  0  0  0  0
  1  2  1  0
  2  3  1  0
  3  4  2  0
  4  5  1  0
  5  6  1  0
  6  7  1  0
  7  8  1  0
  8  9  1  0
  9 10  1  0
 10 11  1  0
 11 12  1  0
 12 13  2  0
 13 14  1  0
 14 15  1  0
 15 16  1  0
 16 17  1  0
 16 18  1  0
 15 19  2  0
 11 20  1  0
  5 21  2  0
 21 22  1  0
 22 23  1  0
 23 24  2  0
 24 25  1  0
 25 26  2  0
 26 27  1  0
 27 28  2  0
 28 29  1  0
 28 30  1  0
 30 31  1  0
 21 32  1  0
 32 33  2  0
 33 34  1  0
 34 35  1  0
 33  3  1  0
 20  8  1  0
 31 22  2  0
 19 12  1  0
 30 25  1  0
  1 36  1  0
  1 37  1  0
  1 38  1  0
  4 39  1  0
  6 40  1  0
  7 41  1  0
  7 42  1  0
  8 43  1  0
  9 44  1  0
  9 45  1  0
 10 46  1  0
 10 47  1  0
 11 48  1  0
 16 49  1  0
 17 50  1  0
 17 51  1  0
 17 52  1  0
 18 53  1  0
 18 54  1  0
 18 55  1  0
 20 56  1  0
 23 57  1  0
 24 58  1  0
 29 59  1  0
 29 60  1  0
 31 61  1  0
 32 62  1  0
 35 63  1  0
 35 64  1  0
 35 65  1  0
M  END
>  <Energy>  (1000) 
188.55183493644259

>  <compound_id>  (1000) 
3844

>  <target_id>  (1000) 
1

>  <reference_id>  (1000) 
148

>  <inspiration_ids>  (1000) 
[132, 148]

>  <energy_score>  (1000) 
-16.18429519770936

>  <distance_score>  (1000) 
1.855946246319041

>  <path>  (1000) 
/opt/xchem-fragalysis-2/maxwin/BulkDock/SCRATCH/505734/C3844-P148/C3844-P148.minimised.mol

>  <scratch_subdir>  (1000) 
/opt/xchem-fragalysis-2/maxwin/BulkDock/SCRATCH/505734/C3844-P148

>  <fragmenstein_runtime>  (1000) 
5.469707727432251

>  <fragmenstein_outcome>  (1000) 
too moved

>  <fragmenstein_mode>  (1000) 
expansion

>  <fragmenstein_error>  (1000) 


$$$$
C3807-P132
     RDKit          3D

 37 40  0  0  0  0  0  0  0  0999 V2000
    6.3058   -1.2563   33.8044 C   0  0  0  0  0  0  0  0  0  0  0  0
    5.0882   -1.2022   34.5469 O   0  0  0  0  0  0  0  0  0  0  0  0
    4.2069   -2.1474   34.0871 C   0  0  0  0  0  0  0  0  0  0  0  0
    3.1719   -1.7038   33.2645 C   0  0  0  0  0  0  0  0  0  0  0  0
    2.2194   -2.6088   32.8043 C   0  0  0  0  0  0  0  0  0  0  0  0
    2.3020   -3.9597   33.1636 C   0  0  0  0  0  0  0  0  0  0  0  0
    1.3149   -4.9234   32.6328 C   0  0  0  0  0  0  0  0  0  0  0  0
    0.5588   -5.7170   33.4397 C   0  0  0  0  0  0  0  0  0  0  0  0
    0.5088   -5.7429   34.9077 C   0  0  0  0  0  0  0  0  0  0  0  0
   -0.2752   -6.6377   35.5480 C   0  0  0  0  0  0  0  0  0  0  0  0
   -1.1224   -7.5759   34.8080 C   0  0  0  0  0  0  0  0  0  0  0  0
   -1.0878   -7.5435   33.4679 C   0  0  0  0  0  0  0  0  0  0  0  0
   -1.7033   -8.2374   32.4527 N   0  0  0  0  0  0  0  0  0  0  0  0
   -1.3259   -7.7477   31.1880 N   0  0  0  0  0  0  0  0  0  0  0  0
   -0.4575   -6.7957   31.4913 C   0  0  0  0  0  0  0  0  0  0  0  0
    0.2906   -5.9222   30.5771 C   0  0  0  0  0  0  0  0  0  0  0  0
    1.1341   -5.0529   31.1639 C   0  0  0  0  0  0  0  0  0  0  0  0
   -0.2782   -6.6374   32.8416 N   0  0  0  0  0  0  0  0  0  0  0  0
    3.3533   -4.3945   33.9888 C   0  0  0  0  0  0  0  0  0  0  0  0
    4.2906   -3.4884   34.4872 C   0  0  0  0  0  0  0  0  0  0  0  0
    5.3011   -3.8061   35.3531 O   0  0  0  0  0  0  0  0  0  0  0  0
    5.3438   -5.1319   35.8601 C   0  0  0  0  0  0  0  0  0  0  0  0
    6.1223   -1.1460   32.7295 H   0  0  0  0  0  0  0  0  0  0  0  0
    6.8565   -2.1814   34.0023 H   0  0  0  0  0  0  0  0  0  0  0  0
    6.9308   -0.4181   34.1269 H   0  0  0  0  0  0  0  0  0  0  0  0
    3.1027   -0.6529   32.9974 H   0  0  0  0  0  0  0  0  0  0  0  0
    1.4087   -2.2481   32.1745 H   0  0  0  0  0  0  0  0  0  0  0  0
    1.0872   -5.0250   35.4788 H   0  0  0  0  0  0  0  0  0  0  0  0
   -0.3286   -6.6563   36.6324 H   0  0  0  0  0  0  0  0  0  0  0  0
   -1.7481   -8.2610   35.3596 H   0  0  0  0  0  0  0  0  0  0  0  0
   -2.4762   -8.8811   32.5970 H   0  0  0  0  0  0  0  0  0  0  0  0
    0.1284   -5.9832   29.5210 H   0  0  0  0  0  0  0  0  0  0  0  0
    1.7093   -4.3760   30.5364 H   0  0  0  0  0  0  0  0  0  0  0  0
    3.4139   -5.4483   34.2387 H   0  0  0  0  0  0  0  0  0  0  0  0
    4.4227   -5.3821   36.3970 H   0  0  0  0  0  0  0  0  0  0  0  0
    5.5436   -5.8522   35.0600 H   0  0  0  0  0  0  0  0  0  0  0  0
    6.1711   -5.1909   36.5740 H   0  0  0  0  0  0  0  0  0  0  0  0
  1  2  1  0
  2  3  1  0
  3  4  2  0
  4  5  1  0
  5  6  2  0
  6  7  1  0
  7  8  2  0
  8  9  1  0
  9 10  2  0
 10 11  1  0
 11 12  2  0
 12 13  1  0
 13 14  1  0
 14 15  2  0
 15 16  1  0
 16 17  2  0
 15 18  1  0
  6 19  1  0
 19 20  2  0
 20 21  1  0
 21 22  1  0
 20  3  1  0
 17  7  1  0
 18  8  1  0
 18 12  1  0
  1 23  1  0
  1 24  1  0
  1 25  1  0
  4 26  1  0
  5 27  1  0
  9 28  1  0
 10 29  1  0
 11 30  1  0
 13 31  1  0
 16 32  1  0
 17 33  1  0
 19 34  1  0
 22 35  1  0
 22 36  1  0
 22 37  1  0
M  END
>  <Energy>  (1001) 
109.07857095422342

>  <compound_id>  (1001) 
3807

>  <target_id>  (1001) 
1

>  <reference_id>  (1001) 
132

>  <inspiration_ids>  (1001) 
[132, 149]

>  <energy_score>  (1001) 
-36.89455340072169

>  <distance_score>  (1001) 
0.703492766776934

>  <path>  (1001) 
/opt/xchem-fragalysis-2/maxwin/BulkDock/SCRATCH/505734/C3807-P132/C3807-P132.minimised.mol

>  <scratch_subdir>  (1001) 
/opt/xchem-fragalysis-2/maxwin/BulkDock/SCRATCH/505734/C3807-P132

>  <fragmenstein_runtime>  (1001) 
1.0954475402832031

>  <fragmenstein_outcome>  (1001) 
acceptable

>  <fragmenstein_mode>  (1001) 
expansion

>  <fragmenstein_error>  (1001) 


$$$$
C3807-P149
     RDKit          3D

 37 40  0  0  0  0  0  0  0  0999 V2000
    6.2796   -1.2929   33.7806 C   0  0  0  0  0  0  0  0  0  0  0  0
    5.0602   -1.2187   34.5184 O   0  0  0  0  0  0  0  0  0  0  0  0
    4.1708   -2.1625   34.0708 C   0  0  0  0  0  0  0  0  0  0  0  0
    3.1240   -1.7144   33.2658 C   0  0  0  0  0  0  0  0  0  0  0  0
    2.1590   -2.6146   32.8206 C   0  0  0  0  0  0  0  0  0  0  0  0
    2.2398   -3.9672   33.1749 C   0  0  0  0  0  0  0  0  0  0  0  0
    1.2335   -4.9245   32.6624 C   0  0  0  0  0  0  0  0  0  0  0  0
    0.5140   -5.7416   33.4810 C   0  0  0  0  0  0  0  0  0  0  0  0
    0.5236   -5.8076   34.9491 C   0  0  0  0  0  0  0  0  0  0  0  0
   -0.2068   -6.7429   35.5959 C   0  0  0  0  0  0  0  0  0  0  0  0
   -1.0583   -7.6880   34.8684 C   0  0  0  0  0  0  0  0  0  0  0  0
   -1.0966   -7.6030   33.5310 C   0  0  0  0  0  0  0  0  0  0  0  0
   -1.7372   -8.2853   32.5242 N   0  0  0  0  0  0  0  0  0  0  0  0
   -1.4016   -7.7709   31.2561 N   0  0  0  0  0  0  0  0  0  0  0  0
   -0.5490   -6.8027   31.5500 C   0  0  0  0  0  0  0  0  0  0  0  0
    0.1517   -5.9034   30.6217 C   0  0  0  0  0  0  0  0  0  0  0  0
    0.9957   -5.0258   31.1964 C   0  0  0  0  0  0  0  0  0  0  0  0
   -0.3386   -6.6562   32.8959 N   0  0  0  0  0  0  0  0  0  0  0  0
    3.3061   -4.4063   33.9795 C   0  0  0  0  0  0  0  0  0  0  0  0
    4.2552   -3.5046   34.4660 C   0  0  0  0  0  0  0  0  0  0  0  0
    5.2753   -3.8278   35.3190 O   0  0  0  0  0  0  0  0  0  0  0  0
    5.3231   -5.1568   35.8178 C   0  0  0  0  0  0  0  0  0  0  0  0
    6.0988   -1.2244   32.7018 H   0  0  0  0  0  0  0  0  0  0  0  0
    6.8356   -2.2060   34.0151 H   0  0  0  0  0  0  0  0  0  0  0  0
    6.8985   -0.4392   34.0729 H   0  0  0  0  0  0  0  0  0  0  0  0
    3.0538   -0.6625   33.0023 H   0  0  0  0  0  0  0  0  0  0  0  0
    1.3383   -2.2469   32.2079 H   0  0  0  0  0  0  0  0  0  0  0  0
    1.1088   -5.0931   35.5169 H   0  0  0  0  0  0  0  0  0  0  0  0
   -0.2088   -6.8041   36.6801 H   0  0  0  0  0  0  0  0  0  0  0  0
   -1.6097   -8.4330   35.4269 H   0  0  0  0  0  0  0  0  0  0  0  0
   -2.4928   -8.9468   32.6950 H   0  0  0  0  0  0  0  0  0  0  0  0
   -0.0581   -5.9514   29.5696 H   0  0  0  0  0  0  0  0  0  0  0  0
    1.5314   -4.3229   30.5623 H   0  0  0  0  0  0  0  0  0  0  0  0
    3.3686   -5.4608   34.2270 H   0  0  0  0  0  0  0  0  0  0  0  0
    4.4093   -5.4084   36.3664 H   0  0  0  0  0  0  0  0  0  0  0  0
    5.5102   -5.8727   35.0108 H   0  0  0  0  0  0  0  0  0  0  0  0
    6.1604   -5.2210   36.5194 H   0  0  0  0  0  0  0  0  0  0  0  0
  1  2  1  0
  2  3  1  0
  3  4  2  0
  4  5  1  0
  5  6  2  0
  6  7  1  0
  7  8  2  0
  8  9  1  0
  9 10  2  0
 10 11  1  0
 11 12  2  0
 12 13  1  0
 13 14  1  0
 14 15  2  0
 15 16  1  0
 16 17  2  0
 15 18  1  0
  6 19  1  0
 19 20  2  0
 20 21  1  0
 21 22  1  0
 20  3  1  0
 17  7  1  0
 18  8  1  0
 18 12  1  0
  1 23  1  0
  1 24  1  0
  1 25  1  0
  4 26  1  0
  5 27  1  0
  9 28  1  0
 10 29  1  0
 11 30  1  0
 13 31  1  0
 16 32  1  0
 17 33  1  0
 19 34  1  0
 22 35  1  0
 22 36  1  0
 22 37  1  0
M  END
>  <Energy>  (1002) 
109.34253169514679

>  <compound_id>  (1002) 
3807

>  <target_id>  (1002) 
1

>  <reference_id>  (1002) 
149

>  <inspiration_ids>  (1002) 
[132, 149]

>  <energy_score>  (1002) 
-36.63059265979722

>  <distance_score>  (1002) 
0.6765136142541407

>  <path>  (1002) 
/opt/xchem-fragalysis-2/maxwin/BulkDock/SCRATCH/505734/C3807-P149/C3807-P149.minimised.mol

>  <scratch_subdir>  (1002) 
/opt/xchem-fragalysis-2/maxwin/BulkDock/SCRATCH/505734/C3807-P149

>  <fragmenstein_runtime>  (1002) 
1.0765786170959473

>  <fragmenstein_outcome>  (1002) 
acceptable

>  <fragmenstein_mode>  (1002) 
expansion

>  <fragmenstein_error>  (1002) 


$$$$
C3845-P132
     RDKit          3D

 54 57  0  0  0  0  0  0  0  0999 V2000
    2.3209   -3.6204   37.9295 C   0  0  0  0  0  0  0  0  0  0  0  0
    2.1053   -3.9901   39.3429 O   0  0  0  0  0  0  0  0  0  0  0  0
    1.1581   -5.0271   39.4086 C   0  0  0  0  0  0  0  0  0  0  0  0
    1.6933   -6.2985   39.2219 C   0  0  0  0  0  0  0  0  0  0  0  0
    1.1712   -7.0418   38.1785 C   0  0  0  0  0  0  0  0  0  0  0  0
    0.1228   -6.5003   37.4225 C   0  0  0  0  0  0  0  0  0  0  0  0
   -0.0003   -6.8974   35.9603 C   0  0  0  0  0  0  0  0  0  0  0  0
   -1.4273   -7.1994   35.5614 C   0  0  0  0  0  0  0  0  0  0  0  0
   -1.4876   -7.7149   34.1478 C   0  0  0  0  0  0  0  0  0  0  0  0
   -1.0390   -6.6654   33.1841 C   0  0  0  0  0  0  0  0  0  0  0  0
   -1.0764   -6.9273   31.6918 C   0  0  0  0  0  0  0  0  0  0  0  0
   -1.0885   -8.7440   31.1911 Br  0  0  0  0  0  0  0  0  0  0  0  0
    0.1194   -6.2061   31.0954 C   0  0  0  0  0  0  0  0  0  0  0  0
    0.6394   -5.4325   32.2959 C   0  0  0  0  0  0  0  0  0  0  0  0
    1.9970   -5.1521   32.2463 O   0  0  0  0  0  0  0  0  0  0  0  0
    2.3581   -4.1570   33.2084 C   0  0  0  0  0  0  0  0  0  0  0  0
    3.6533   -4.6179   33.8321 C   0  0  0  0  0  0  0  0  0  0  0  0
    2.6119   -2.8662   32.4198 C   0  0  0  0  0  0  0  0  0  0  0  0
    1.4056   -3.7729   34.2458 O   0  0  0  0  0  0  0  0  0  0  0  0
    0.5329   -4.5160   34.9630 C   0  0  0  0  0  0  0  0  0  0  0  0
   -0.3902   -3.9696   35.5469 O   0  0  0  0  0  0  0  0  0  0  0  0
    0.7414   -5.9977   34.8989 C   0  0  0  0  0  0  0  0  0  0  0  0
    0.4171   -6.4037   33.4420 C   0  0  0  0  0  0  0  0  0  0  0  0
   -0.6537   -5.4714   37.9821 C   0  0  0  0  0  0  0  0  0  0  0  0
   -0.1474   -4.7273   39.0315 C   0  0  0  0  0  0  0  0  0  0  0  0
   -0.8170   -3.5763   39.3383 O   0  0  0  0  0  0  0  0  0  0  0  0
   -0.5207   -3.0720   40.6376 C   0  0  0  0  0  0  0  0  0  0  0  0
    2.5919   -4.4901   37.3240 H   0  0  0  0  0  0  0  0  0  0  0  0
    3.1630   -2.9224   37.9181 H   0  0  0  0  0  0  0  0  0  0  0  0
    1.4438   -3.1000   37.5358 H   0  0  0  0  0  0  0  0  0  0  0  0
    2.6680   -6.5537   39.6273 H   0  0  0  0  0  0  0  0  0  0  0  0
    1.7114   -7.9240   37.8435 H   0  0  0  0  0  0  0  0  0  0  0  0
    0.5150   -7.8678   35.8846 H   0  0  0  0  0  0  0  0  0  0  0  0
   -2.0635   -6.3236   35.6758 H   0  0  0  0  0  0  0  0  0  0  0  0
   -1.7976   -8.0101   36.1828 H   0  0  0  0  0  0  0  0  0  0  0  0
   -0.7846   -8.5363   34.0716 H   0  0  0  0  0  0  0  0  0  0  0  0
   -2.4652   -8.1302   33.9304 H   0  0  0  0  0  0  0  0  0  0  0  0
   -1.6044   -5.7465   33.3744 H   0  0  0  0  0  0  0  0  0  0  0  0
   -1.9852   -6.5470   31.2805 H   0  0  0  0  0  0  0  0  0  0  0  0
   -0.1682   -5.5219   30.2899 H   0  0  0  0  0  0  0  0  0  0  0  0
    0.8894   -6.8671   30.6860 H   0  0  0  0  0  0  0  0  0  0  0  0
    0.0464   -4.5083   32.3687 H   0  0  0  0  0  0  0  0  0  0  0  0
    3.5811   -5.6280   34.2430 H   0  0  0  0  0  0  0  0  0  0  0  0
    4.4589   -4.6645   33.0897 H   0  0  0  0  0  0  0  0  0  0  0  0
    3.9657   -3.9557   34.6466 H   0  0  0  0  0  0  0  0  0  0  0  0
    3.3333   -3.0225   31.6104 H   0  0  0  0  0  0  0  0  0  0  0  0
    1.6821   -2.5142   31.9573 H   0  0  0  0  0  0  0  0  0  0  0  0
    2.9703   -2.0624   33.0722 H   0  0  0  0  0  0  0  0  0  0  0  0
    1.8037   -6.1557   35.1047 H   0  0  0  0  0  0  0  0  0  0  0  0
    1.0124   -7.3091   33.2618 H   0  0  0  0  0  0  0  0  0  0  0  0
   -1.5365   -5.0894   37.4777 H   0  0  0  0  0  0  0  0  0  0  0  0
    0.4265   -2.5245   40.6369 H   0  0  0  0  0  0  0  0  0  0  0  0
   -0.5136   -3.8651   41.3940 H   0  0  0  0  0  0  0  0  0  0  0  0
   -1.3108   -2.3640   40.9064 H   0  0  0  0  0  0  0  0  0  0  0  0
  1  2  1  0
  2  3  1  0
  3  4  2  0
  4  5  1  0
  5  6  2  0
  6  7  1  0
  7  8  1  0
  8  9  1  0
  9 10  1  0
 10 11  1  0
 11 12  1  0
 11 13  1  0
 13 14  1  0
 14 15  1  0
 15 16  1  0
 16 17  1  0
 16 18  1  0
 16 19  1  0
 19 20  1  0
 20 21  2  0
 20 22  1  0
 22 23  1  0
  6 24  1  0
 24 25  2  0
 25 26  1  0
 26 27  1  0
 25  3  1  0
 22  7  1  0
 23 10  1  0
 23 14  1  0
  1 28  1  0
  1 29  1  0
  1 30  1  0
  4 31  1  0
  5 32  1  0
  7 33  1  0
  8 34  1  0
  8 35  1  0
  9 36  1  0
  9 37  1  0
 10 38  1  0
 11 39  1  0
 13 40  1  0
 13 41  1  0
 14 42  1  0
 17 43  1  0
 17 44  1  0
 17 45  1  0
 18 46  1  0
 18 47  1  0
 18 48  1  0
 22 49  1  0
 23 50  1  0
 24 51  1  0
 27 52  1  0
 27 53  1  0
 27 54  1  0
M  END
>  <Energy>  (1003) 
119.23980230977527

>  <compound_id>  (1003) 
3845

>  <target_id>  (1003) 
1

>  <reference_id>  (1003) 
132

>  <inspiration_ids>  (1003) 
[132, 150]

>  <energy_score>  (1003) 
-26.044675502514394

>  <distance_score>  (1003) 
2.8616490558400574

>  <path>  (1003) 
/opt/xchem-fragalysis-2/maxwin/BulkDock/SCRATCH/505734/C3845-P132/C3845-P132.minimised.mol

>  <scratch_subdir>  (1003) 
/opt/xchem-fragalysis-2/maxwin/BulkDock/SCRATCH/505734/C3845-P132

>  <fragmenstein_runtime>  (1003) 
5.078511953353882

>  <fragmenstein_outcome>  (1003) 
too moved

>  <fragmenstein_mode>  (1003) 
expansion

>  <fragmenstein_error>  (1003) 


$$$$
C3845-P150
     RDKit          3D

 54 57  0  0  0  0  0  0  0  0999 V2000
    2.1567   -3.6835   38.3462 C   0  0  0  0  0  0  0  0  0  0  0  0
    1.8025   -4.1985   39.6845 O   0  0  0  0  0  0  0  0  0  0  0  0
    0.8603   -5.2284   39.5399 C   0  0  0  0  0  0  0  0  0  0  0  0
    1.4265   -6.4724   39.2779 C   0  0  0  0  0  0  0  0  0  0  0  0
    1.0103   -7.1101   38.1215 C   0  0  0  0  0  0  0  0  0  0  0  0
    0.0239   -6.5090   37.3245 C   0  0  0  0  0  0  0  0  0  0  0  0
    0.0158   -6.7910   35.8307 C   0  0  0  0  0  0  0  0  0  0  0  0
   -1.3120   -7.3304   35.3443 C   0  0  0  0  0  0  0  0  0  0  0  0
   -1.3068   -7.7345   33.8715 C   0  0  0  0  0  0  0  0  0  0  0  0
   -0.3649   -6.9703   32.9762 C   0  0  0  0  0  0  0  0  0  0  0  0
   -0.8346   -6.7433   31.5718 C   0  0  0  0  0  0  0  0  0  0  0  0
   -0.5184   -8.2078   30.4349 Br  0  0  0  0  0  0  0  0  0  0  0  0
   -0.1141   -5.5051   31.0912 C   0  0  0  0  0  0  0  0  0  0  0  0
    0.3648   -4.8173   32.3667 C   0  0  0  0  0  0  0  0  0  0  0  0
    1.7591   -4.9761   32.4689 O   0  0  0  0  0  0  0  0  0  0  0  0
    2.3701   -4.0060   33.3158 C   0  0  0  0  0  0  0  0  0  0  0  0
    3.7066   -4.5903   33.7171 C   0  0  0  0  0  0  0  0  0  0  0  0
    2.6197   -2.7259   32.5072 C   0  0  0  0  0  0  0  0  0  0  0  0
    1.6782   -3.5972   34.5249 O   0  0  0  0  0  0  0  0  0  0  0  0
    0.7399   -4.2732   35.2248 C   0  0  0  0  0  0  0  0  0  0  0  0
    0.0235   -3.6695   36.0072 O   0  0  0  0  0  0  0  0  0  0  0  0
    0.5788   -5.7060   34.8390 C   0  0  0  0  0  0  0  0  0  0  0  0
   -0.2344   -5.5906   33.5257 C   0  0  0  0  0  0  0  0  0  0  0  0
   -0.8067   -5.5373   37.9039 C   0  0  0  0  0  0  0  0  0  0  0  0
   -0.4054   -4.8929   39.0638 C   0  0  0  0  0  0  0  0  0  0  0  0
   -1.1340   -3.7935   39.4209 O   0  0  0  0  0  0  0  0  0  0  0  0
   -0.9014   -3.3458   40.7532 C   0  0  0  0  0  0  0  0  0  0  0  0
    3.0745   -3.1020   38.4755 H   0  0  0  0  0  0  0  0  0  0  0  0
    1.3750   -3.0022   38.0037 H   0  0  0  0  0  0  0  0  0  0  0  0
    2.3649   -4.4856   37.6334 H   0  0  0  0  0  0  0  0  0  0  0  0
    2.3658   -6.7603   39.7409 H   0  0  0  0  0  0  0  0  0  0  0  0
    1.5915   -7.9508   37.7515 H   0  0  0  0  0  0  0  0  0  0  0  0
    0.6992   -7.6453   35.6979 H   0  0  0  0  0  0  0  0  0  0  0  0
   -2.0557   -6.5574   35.4951 H   0  0  0  0  0  0  0  0  0  0  0  0
   -1.6051   -8.2010   35.9385 H   0  0  0  0  0  0  0  0  0  0  0  0
   -1.0004   -8.7578   33.7776 H   0  0  0  0  0  0  0  0  0  0  0  0
   -2.3161   -7.7337   33.4841 H   0  0  0  0  0  0  0  0  0  0  0  0
    0.6138   -7.4619   32.9790 H   0  0  0  0  0  0  0  0  0  0  0  0
   -1.9000   -6.6262   31.5252 H   0  0  0  0  0  0  0  0  0  0  0  0
   -0.7992   -4.8436   30.5533 H   0  0  0  0  0  0  0  0  0  0  0  0
    0.7254   -5.7137   30.4176 H   0  0  0  0  0  0  0  0  0  0  0  0
    0.0690   -3.7627   32.3635 H   0  0  0  0  0  0  0  0  0  0  0  0
    3.5977   -5.5406   34.2480 H   0  0  0  0  0  0  0  0  0  0  0  0
    4.2468   -3.9181   34.3937 H   0  0  0  0  0  0  0  0  0  0  0  0
    4.3414   -4.7849   32.8465 H   0  0  0  0  0  0  0  0  0  0  0  0
    1.6774   -2.2288   32.2533 H   0  0  0  0  0  0  0  0  0  0  0  0
    3.1356   -2.9423   31.5655 H   0  0  0  0  0  0  0  0  0  0  0  0
    3.2074   -2.0014   33.0818 H   0  0  0  0  0  0  0  0  0  0  0  0
    1.5878   -6.0803   34.6370 H   0  0  0  0  0  0  0  0  0  0  0  0
   -1.2132   -5.1496   33.7224 H   0  0  0  0  0  0  0  0  0  0  0  0
   -1.6362   -5.1116   37.3460 H   0  0  0  0  0  0  0  0  0  0  0  0
    0.0170   -2.7542   40.8104 H   0  0  0  0  0  0  0  0  0  0  0  0
   -0.8796   -4.1759   41.4682 H   0  0  0  0  0  0  0  0  0  0  0  0
   -1.7326   -2.6907   41.0319 H   0  0  0  0  0  0  0  0  0  0  0  0
  1  2  1  0
  2  3  1  0
  3  4  2  0
  4  5  1  0
  5  6  2  0
  6  7  1  0
  7  8  1  0
  8  9  1  0
  9 10  1  0
 10 11  1  0
 11 12  1  0
 11 13  1  0
 13 14  1  0
 14 15  1  0
 15 16  1  0
 16 17  1  0
 16 18  1  0
 16 19  1  0
 19 20  1  0
 20 21  2  0
 20 22  1  0
 22 23  1  0
  6 24  1  0
 24 25  2  0
 25 26  1  0
 26 27  1  0
 25  3  1  0
 22  7  1  0
 23 10  1  0
 23 14  1  0
  1 28  1  0
  1 29  1  0
  1 30  1  0
  4 31  1  0
  5 32  1  0
  7 33  1  0
  8 34  1  0
  8 35  1  0
  9 36  1  0
  9 37  1  0
 10 38  1  0
 11 39  1  0
 13 40  1  0
 13 41  1  0
 14 42  1  0
 17 43  1  0
 17 44  1  0
 17 45  1  0
 18 46  1  0
 18 47  1  0
 18 48  1  0
 22 49  1  0
 23 50  1  0
 24 51  1  0
 27 52  1  0
 27 53  1  0
 27 54  1  0
M  END
>  <Energy>  (1004) 
118.12047651029694

>  <compound_id>  (1004) 
3845

>  <target_id>  (1004) 
1

>  <reference_id>  (1004) 
150

>  <inspiration_ids>  (1004) 
[132, 150]

>  <energy_score>  (1004) 
-27.16400130199321

>  <distance_score>  (1004) 
3.0252793676564593

>  <path>  (1004) 
/opt/xchem-fragalysis-2/maxwin/BulkDock/SCRATCH/505734/C3845-P150/C3845-P150.minimised.mol

>  <scratch_subdir>  (1004) 
/opt/xchem-fragalysis-2/maxwin/BulkDock/SCRATCH/505734/C3845-P150

>  <fragmenstein_runtime>  (1004) 
4.3448708057403564

>  <fragmenstein_outcome>  (1004) 
too moved

>  <fragmenstein_mode>  (1004) 
expansion

>  <fragmenstein_error>  (1004) 


$$$$
C3809-P132
     RDKit          3D

 36 39  0  0  0  0  0  0  0  0999 V2000
    6.3759   -1.2566   33.7897 C   0  0  0  0  0  0  0  0  0  0  0  0
    5.1411   -1.1606   34.4983 O   0  0  0  0  0  0  0  0  0  0  0  0
    4.2519   -2.0929   34.0275 C   0  0  0  0  0  0  0  0  0  0  0  0
    3.2797   -1.6513   33.1291 C   0  0  0  0  0  0  0  0  0  0  0  0
    2.3227   -2.5429   32.6532 C   0  0  0  0  0  0  0  0  0  0  0  0
    2.3366   -3.8760   33.0791 C   0  0  0  0  0  0  0  0  0  0  0  0
    1.3354   -4.8412   32.5925 C   0  0  0  0  0  0  0  0  0  0  0  0
    1.2338   -5.0363   31.2473 C   0  0  0  0  0  0  0  0  0  0  0  0
    0.3230   -6.0301   30.6626 C   0  0  0  0  0  0  0  0  0  0  0  0
   -0.3226   -6.8581   31.4954 C   0  0  0  0  0  0  0  0  0  0  0  0
   -1.2701   -7.8454   31.2335 N   0  0  0  0  0  0  0  0  0  0  0  0
   -1.7338   -8.2518   32.3807 N   0  0  0  0  0  0  0  0  0  0  0  0
   -1.0984   -7.5145   33.3775 C   0  0  0  0  0  0  0  0  0  0  0  0
   -0.1460   -6.7023   32.8333 N   0  0  0  0  0  0  0  0  0  0  0  0
    0.5078   -5.6766   33.4785 C   0  0  0  0  0  0  0  0  0  0  0  0
    0.2700   -5.5638   34.8082 C   0  0  0  0  0  0  0  0  0  0  0  0
   -0.5929   -6.4622   35.4552 N   0  0  0  0  0  0  0  0  0  0  0  0
   -1.3208   -7.4012   34.7023 C   0  0  0  0  0  0  0  0  0  0  0  0
    3.3169   -4.3062   33.9911 C   0  0  0  0  0  0  0  0  0  0  0  0
    4.2691   -3.4167   34.4882 C   0  0  0  0  0  0  0  0  0  0  0  0
    5.2285   -3.7319   35.4118 O   0  0  0  0  0  0  0  0  0  0  0  0
    5.2882   -5.0754   35.8692 C   0  0  0  0  0  0  0  0  0  0  0  0
    6.8808   -2.2076   33.9880 H   0  0  0  0  0  0  0  0  0  0  0  0
    6.2270   -1.1233   32.7122 H   0  0  0  0  0  0  0  0  0  0  0  0
    7.0267   -0.4507   34.1421 H   0  0  0  0  0  0  0  0  0  0  0  0
    3.2631   -0.6114   32.8150 H   0  0  0  0  0  0  0  0  0  0  0  0
    1.5590   -2.1850   31.9660 H   0  0  0  0  0  0  0  0  0  0  0  0
    1.8362   -4.4711   30.5406 H   0  0  0  0  0  0  0  0  0  0  0  0
    0.1783   -6.0451   29.5979 H   0  0  0  0  0  0  0  0  0  0  0  0
    0.6759   -4.7825   35.4407 H   0  0  0  0  0  0  0  0  0  0  0  0
   -0.9895   -6.1659   36.3429 H   0  0  0  0  0  0  0  0  0  0  0  0
   -2.0613   -7.9830   35.2322 H   0  0  0  0  0  0  0  0  0  0  0  0
    3.3079   -5.3439   34.3085 H   0  0  0  0  0  0  0  0  0  0  0  0
    4.3692   -5.3544   36.3951 H   0  0  0  0  0  0  0  0  0  0  0  0
    6.1147   -5.1494   36.5826 H   0  0  0  0  0  0  0  0  0  0  0  0
    5.4980   -5.7649   35.0448 H   0  0  0  0  0  0  0  0  0  0  0  0
  1  2  1  0
  2  3  1  0
  3  4  2  0
  4  5  1  0
  5  6  2  0
  6  7  1  0
  7  8  2  0
  8  9  1  0
  9 10  2  0
 10 11  1  0
 11 12  2  0
 12 13  1  0
 13 14  1  0
 14 15  1  0
 15 16  2  0
 16 17  1  0
 17 18  1  0
  6 19  1  0
 19 20  2  0
 20 21  1  0
 21 22  1  0
 20  3  1  0
 15  7  1  0
 14 10  1  0
 18 13  2  0
  1 23  1  0
  1 24  1  0
  1 25  1  0
  4 26  1  0
  5 27  1  0
  8 28  1  0
  9 29  1  0
 16 30  1  0
 17 31  1  0
 18 32  1  0
 19 33  1  0
 22 34  1  0
 22 35  1  0
 22 36  1  0
M  END
>  <Energy>  (1005) 
142.17910802248119

>  <compound_id>  (1005) 
3809

>  <target_id>  (1005) 
1

>  <reference_id>  (1005) 
132

>  <inspiration_ids>  (1005) 
[132, 152]

>  <energy_score>  (1005) 
-39.64626638290491

>  <distance_score>  (1005) 
0.8684701912176813

>  <path>  (1005) 
/opt/xchem-fragalysis-2/maxwin/BulkDock/SCRATCH/505734/C3809-P132/C3809-P132.minimised.mol

>  <scratch_subdir>  (1005) 
/opt/xchem-fragalysis-2/maxwin/BulkDock/SCRATCH/505734/C3809-P132

>  <fragmenstein_runtime>  (1005) 
1.2896389961242676

>  <fragmenstein_outcome>  (1005) 
acceptable

>  <fragmenstein_mode>  (1005) 
expansion

>  <fragmenstein_error>  (1005) 


$$$$
C3809-P152
     RDKit          3D

 36 39  0  0  0  0  0  0  0  0999 V2000
    6.3625   -1.2747   33.7701 C   0  0  0  0  0  0  0  0  0  0  0  0
    5.1359   -1.1669   34.4908 O   0  0  0  0  0  0  0  0  0  0  0  0
    4.2307   -2.0872   34.0266 C   0  0  0  0  0  0  0  0  0  0  0  0
    3.2479   -1.6286   33.1488 C   0  0  0  0  0  0  0  0  0  0  0  0
    2.2726   -2.5061   32.6826 C   0  0  0  0  0  0  0  0  0  0  0  0
    2.2781   -3.8436   33.0953 C   0  0  0  0  0  0  0  0  0  0  0  0
    1.2575   -4.7945   32.6141 C   0  0  0  0  0  0  0  0  0  0  0  0
    1.0994   -4.9399   31.2671 C   0  0  0  0  0  0  0  0  0  0  0  0
    0.1739   -5.9206   30.6808 C   0  0  0  0  0  0  0  0  0  0  0  0
   -0.4329   -6.7825   31.5088 C   0  0  0  0  0  0  0  0  0  0  0  0
   -1.3711   -7.7787   31.2506 N   0  0  0  0  0  0  0  0  0  0  0  0
   -1.7840   -8.2347   32.3993 N   0  0  0  0  0  0  0  0  0  0  0  0
   -1.1211   -7.5228   33.3939 C   0  0  0  0  0  0  0  0  0  0  0  0
   -0.2107   -6.6680   32.8431 N   0  0  0  0  0  0  0  0  0  0  0  0
    0.4706   -5.6695   33.5011 C   0  0  0  0  0  0  0  0  0  0  0  0
    0.2973   -5.6228   34.8448 C   0  0  0  0  0  0  0  0  0  0  0  0
   -0.5213   -6.5636   35.4888 N   0  0  0  0  0  0  0  0  0  0  0  0
   -1.2730   -7.4794   34.7315 C   0  0  0  0  0  0  0  0  0  0  0  0
    3.2714   -4.2900   33.9863 C   0  0  0  0  0  0  0  0  0  0  0  0
    4.2413   -3.4146   34.4758 C   0  0  0  0  0  0  0  0  0  0  0  0
    5.2119   -3.7472   35.3814 O   0  0  0  0  0  0  0  0  0  0  0  0
    5.2560   -5.0912   35.8390 C   0  0  0  0  0  0  0  0  0  0  0  0
    6.8625   -2.2286   33.9671 H   0  0  0  0  0  0  0  0  0  0  0  0
    6.2038   -1.1446   32.6935 H   0  0  0  0  0  0  0  0  0  0  0  0
    7.0228   -0.4722   34.1125 H   0  0  0  0  0  0  0  0  0  0  0  0
    3.2359   -0.5858   32.8442 H   0  0  0  0  0  0  0  0  0  0  0  0
    1.5003   -2.1323   32.0136 H   0  0  0  0  0  0  0  0  0  0  0  0
    1.6693   -4.3466   30.5565 H   0  0  0  0  0  0  0  0  0  0  0  0
   -0.0069   -5.9071   29.6199 H   0  0  0  0  0  0  0  0  0  0  0  0
    0.7293   -4.8705   35.4946 H   0  0  0  0  0  0  0  0  0  0  0  0
   -0.8559   -6.3348   36.4204 H   0  0  0  0  0  0  0  0  0  0  0  0
   -1.9663   -8.1098   35.2691 H   0  0  0  0  0  0  0  0  0  0  0  0
    3.2602   -5.3302   34.2943 H   0  0  0  0  0  0  0  0  0  0  0  0
    4.3388   -5.3560   36.3754 H   0  0  0  0  0  0  0  0  0  0  0  0
    6.0893   -5.1778   36.5429 H   0  0  0  0  0  0  0  0  0  0  0  0
    5.4456   -5.7840   35.0125 H   0  0  0  0  0  0  0  0  0  0  0  0
  1  2  1  0
  2  3  1  0
  3  4  2  0
  4  5  1  0
  5  6  2  0
  6  7  1  0
  7  8  2  0
  8  9  1  0
  9 10  2  0
 10 11  1  0
 11 12  2  0
 12 13  1  0
 13 14  1  0
 14 15  1  0
 15 16  2  0
 16 17  1  0
 17 18  1  0
  6 19  1  0
 19 20  2  0
 20 21  1  0
 21 22  1  0
 20  3  1  0
 15  7  1  0
 14 10  1  0
 18 13  2  0
  1 23  1  0
  1 24  1  0
  1 25  1  0
  4 26  1  0
  5 27  1  0
  8 28  1  0
  9 29  1  0
 16 30  1  0
 17 31  1  0
 18 32  1  0
 19 33  1  0
 22 34  1  0
 22 35  1  0
 22 36  1  0
M  END
>  <Energy>  (1006) 
142.28727532365426

>  <compound_id>  (1006) 
3809

>  <target_id>  (1006) 
1

>  <reference_id>  (1006) 
152

>  <inspiration_ids>  (1006) 
[132, 152]

>  <energy_score>  (1006) 
-39.53809908173173

>  <distance_score>  (1006) 
0.8688764012888912

>  <path>  (1006) 
/opt/xchem-fragalysis-2/maxwin/BulkDock/SCRATCH/505734/C3809-P152/C3809-P152.minimised.mol

>  <scratch_subdir>  (1006) 
/opt/xchem-fragalysis-2/maxwin/BulkDock/SCRATCH/505734/C3809-P152

>  <fragmenstein_runtime>  (1006) 
1.3737637996673584

>  <fragmenstein_outcome>  (1006) 
acceptable

>  <fragmenstein_mode>  (1006) 
expansion

>  <fragmenstein_error>  (1006) 


$$$$
C3750-P132
     RDKit          3D

 59 62  0  0  0  0  0  0  0  0999 V2000
    6.2047   -1.1504   34.0221 C   0  0  0  0  0  0  0  0  0  0  0  0
    5.0896   -1.2571   34.9103 O   0  0  0  0  0  0  0  0  0  0  0  0
    4.1853   -2.1567   34.4124 C   0  0  0  0  0  0  0  0  0  0  0  0
    3.1272   -1.6532   33.6494 C   0  0  0  0  0  0  0  0  0  0  0  0
    2.1979   -2.5248   33.0794 C   0  0  0  0  0  0  0  0  0  0  0  0
    2.3223   -3.9016   33.2839 C   0  0  0  0  0  0  0  0  0  0  0  0
    1.4123   -4.8591   32.6325 C   0  0  0  0  0  0  0  0  0  0  0  0
    1.6088   -5.1787   31.2207 C   0  0  0  0  0  0  0  0  0  0  0  0
    0.8597   -6.0888   30.5846 C   0  0  0  0  0  0  0  0  0  0  0  0
   -0.1203   -6.8113   31.3004 C   0  0  0  0  0  0  0  0  0  0  0  0
   -0.9358   -7.7702   30.9277 N   0  0  0  0  0  0  0  0  0  0  0  0
   -1.6028   -8.1945   32.0430 N   0  0  0  0  0  0  0  0  0  0  0  0
   -1.2027   -7.4824   33.0755 C   0  0  0  0  0  0  0  0  0  0  0  0
   -1.5471   -7.7094   34.3652 N   0  0  0  0  0  0  0  0  0  0  0  0
   -0.2923   -6.5180   32.6524 N   0  0  0  0  0  0  0  0  0  0  0  0
    0.4300   -5.5001   33.3245 C   0  0  0  0  0  0  0  0  0  0  0  0
    0.0074   -5.0919   34.7054 C   0  0  0  0  0  0  0  0  0  0  0  0
    0.5173   -5.9693   35.7191 N   0  0  0  0  0  0  0  0  0  0  0  0
    0.1901   -6.0810   37.1271 C   0  0  0  0  0  0  0  0  0  0  0  0
   -0.6273   -5.5330   37.7629 O   0  0  0  0  0  0  0  0  0  0  0  0
    1.1147   -7.1469   37.4975 N   0  0  0  0  0  0  0  0  0  0  0  0
    2.4060   -6.5580   38.0038 C   0  0  0  0  0  0  0  0  0  0  0  0
    1.2292   -7.9585   38.7893 C   0  0  0  0  0  0  0  0  0  0  0  0
    1.1474   -7.3665   40.1935 C   0  0  0  0  0  0  0  0  0  0  0  0
    0.0656   -6.5857   40.6176 C   0  0  0  0  0  0  0  0  0  0  0  0
    0.0196   -6.0740   41.9164 C   0  0  0  0  0  0  0  0  0  0  0  0
    1.0478   -6.3489   42.8140 C   0  0  0  0  0  0  0  0  0  0  0  0
    2.1201   -7.1425   42.4161 C   0  0  0  0  0  0  0  0  0  0  0  0
    2.1673   -7.6525   41.1170 C   0  0  0  0  0  0  0  0  0  0  0  0
    3.3739   -4.3971   34.0668 C   0  0  0  0  0  0  0  0  0  0  0  0
    4.2873   -3.5286   34.6612 C   0  0  0  0  0  0  0  0  0  0  0  0
    5.2620   -4.1379   35.4039 O   0  0  0  0  0  0  0  0  0  0  0  0
    5.4925   -3.5200   36.6670 C   0  0  0  0  0  0  0  0  0  0  0  0
    5.8920   -0.7857   33.0374 H   0  0  0  0  0  0  0  0  0  0  0  0
    6.7317   -2.1058   33.9254 H   0  0  0  0  0  0  0  0  0  0  0  0
    6.9013   -0.4220   34.4476 H   0  0  0  0  0  0  0  0  0  0  0  0
    3.0380   -0.5822   33.4864 H   0  0  0  0  0  0  0  0  0  0  0  0
    1.3904   -2.1237   32.4707 H   0  0  0  0  0  0  0  0  0  0  0  0
    2.3802   -4.6374   30.6772 H   0  0  0  0  0  0  0  0  0  0  0  0
    1.0254   -6.3050   29.5399 H   0  0  0  0  0  0  0  0  0  0  0  0
   -1.7789   -8.6964   34.5396 H   0  0  0  0  0  0  0  0  0  0  0  0
   -0.9449   -7.3639   35.1094 H   0  0  0  0  0  0  0  0  0  0  0  0
    0.3376   -4.0822   34.9707 H   0  0  0  0  0  0  0  0  0  0  0  0
   -1.0808   -5.0546   34.7993 H   0  0  0  0  0  0  0  0  0  0  0  0
    1.2260   -6.6510   35.4896 H   0  0  0  0  0  0  0  0  0  0  0  0
    3.2341   -7.2612   38.1804 H   0  0  0  0  0  0  0  0  0  0  0  0
    2.7854   -5.9643   37.1570 H   0  0  0  0  0  0  0  0  0  0  0  0
    2.2760   -5.7878   38.7762 H   0  0  0  0  0  0  0  0  0  0  0  0
    2.0067   -8.7352   38.6969 H   0  0  0  0  0  0  0  0  0  0  0  0
    0.3062   -8.5528   38.7371 H   0  0  0  0  0  0  0  0  0  0  0  0
   -0.7610   -6.3678   39.9481 H   0  0  0  0  0  0  0  0  0  0  0  0
   -0.8270   -5.4653   42.2243 H   0  0  0  0  0  0  0  0  0  0  0  0
    1.0056   -5.9545   43.8256 H   0  0  0  0  0  0  0  0  0  0  0  0
    2.9146   -7.3735   43.1205 H   0  0  0  0  0  0  0  0  0  0  0  0
    3.0049   -8.2863   40.8340 H   0  0  0  0  0  0  0  0  0  0  0  0
    3.4898   -5.4664   34.2205 H   0  0  0  0  0  0  0  0  0  0  0  0
    6.2722   -2.7579   36.5827 H   0  0  0  0  0  0  0  0  0  0  0  0
    4.5794   -3.0986   37.1031 H   0  0  0  0  0  0  0  0  0  0  0  0
    5.8595   -4.2918   37.3508 H   0  0  0  0  0  0  0  0  0  0  0  0
  1  2  1  0
  2  3  1  0
  3  4  2  0
  4  5  1  0
  5  6  2  0
  6  7  1  0
  7  8  1  0
  8  9  2  0
  9 10  1  0
 10 11  2  0
 11 12  1  0
 12 13  2  0
 13 14  1  0
 13 15  1  0
 15 16  1  0
 16 17  1  0
 17 18  1  0
 18 19  1  0
 19 20  2  0
 19 21  1  0
 21 22  1  0
 21 23  1  0
 23 24  1  0
 24 25  2  0
 25 26  1  0
 26 27  2  0
 27 28  1  0
 28 29  2  0
  6 30  1  0
 30 31  2  0
 31 32  1  0
 32 33  1  0
 31  3  1  0
 16  7  2  0
 29 24  1  0
 15 10  1  0
  1 34  1  0
  1 35  1  0
  1 36  1  0
  4 37  1  0
  5 38  1  0
  8 39  1  0
  9 40  1  0
 14 41  1  0
 14 42  1  0
 17 43  1  0
 17 44  1  0
 18 45  1  0
 22 46  1  0
 22 47  1  0
 22 48  1  0
 23 49  1  0
 23 50  1  0
 25 51  1  0
 26 52  1  0
 27 53  1  0
 28 54  1  0
 29 55  1  0
 30 56  1  0
 33 57  1  0
 33 58  1  0
 33 59  1  0
M  END
>  <Energy>  (1007) 
75.159499453632066

>  <compound_id>  (1007) 
3750

>  <target_id>  (1007) 
1

>  <reference_id>  (1007) 
132

>  <inspiration_ids>  (1007) 
[132, 158]

>  <energy_score>  (1007) 
14.848102257939672

>  <distance_score>  (1007) 
1.0405729481197898

>  <path>  (1007) 
/opt/xchem-fragalysis-2/maxwin/BulkDock/SCRATCH/505734/C3750-P132/C3750-P132.minimised.mol

>  <scratch_subdir>  (1007) 
/opt/xchem-fragalysis-2/maxwin/BulkDock/SCRATCH/505734/C3750-P132

>  <fragmenstein_runtime>  (1007) 
10.17459511756897

>  <fragmenstein_outcome>  (1007) 
too moved

>  <fragmenstein_mode>  (1007) 
expansion

>  <fragmenstein_error>  (1007) 


$$$$
C3750-P158
     RDKit          3D

 59 62  0  0  0  0  0  0  0  0999 V2000
    5.9789   -0.9437   34.2643 C   0  0  0  0  0  0  0  0  0  0  0  0
    4.6235   -0.7726   34.6745 O   0  0  0  0  0  0  0  0  0  0  0  0
    3.8009   -1.8118   34.3192 C   0  0  0  0  0  0  0  0  0  0  0  0
    2.6004   -1.4260   33.7120 C   0  0  0  0  0  0  0  0  0  0  0  0
    1.6806   -2.3845   33.2881 C   0  0  0  0  0  0  0  0  0  0  0  0
    1.9535   -3.7382   33.4874 C   0  0  0  0  0  0  0  0  0  0  0  0
    1.0744   -4.7841   32.9280 C   0  0  0  0  0  0  0  0  0  0  0  0
    1.1488   -5.0568   31.4915 C   0  0  0  0  0  0  0  0  0  0  0  0
    0.3983   -5.9952   30.9014 C   0  0  0  0  0  0  0  0  0  0  0  0
   -0.4466   -6.8050   31.6887 C   0  0  0  0  0  0  0  0  0  0  0  0
   -1.2469   -7.7899   31.3566 N   0  0  0  0  0  0  0  0  0  0  0  0
   -1.8033   -8.2643   32.5119 N   0  0  0  0  0  0  0  0  0  0  0  0
   -1.3352   -7.5725   33.5304 C   0  0  0  0  0  0  0  0  0  0  0  0
   -1.5382   -7.8524   34.8420 N   0  0  0  0  0  0  0  0  0  0  0  0
   -0.5030   -6.5606   33.0600 N   0  0  0  0  0  0  0  0  0  0  0  0
    0.2036   -5.5059   33.6903 C   0  0  0  0  0  0  0  0  0  0  0  0
   -0.2152   -5.0821   35.0662 C   0  0  0  0  0  0  0  0  0  0  0  0
    0.4527   -5.6430   36.2082 N   0  0  0  0  0  0  0  0  0  0  0  0
    1.5905   -6.5336   36.3003 C   0  0  0  0  0  0  0  0  0  0  0  0
    2.2040   -7.0826   35.4578 O   0  0  0  0  0  0  0  0  0  0  0  0
    1.8107   -6.4711   37.7474 N   0  0  0  0  0  0  0  0  0  0  0  0
    1.0718   -7.5917   38.4305 C   0  0  0  0  0  0  0  0  0  0  0  0
    2.9545   -6.9953   38.5942 C   0  0  0  0  0  0  0  0  0  0  0  0
    3.6825   -8.3071   38.3623 C   0  0  0  0  0  0  0  0  0  0  0  0
    4.4216   -8.5371   37.1945 C   0  0  0  0  0  0  0  0  0  0  0  0
    5.1463   -9.7203   37.0333 C   0  0  0  0  0  0  0  0  0  0  0  0
    5.1460  -10.6836   38.0402 C   0  0  0  0  0  0  0  0  0  0  0  0
    4.4261  -10.4643   39.2125 C   0  0  0  0  0  0  0  0  0  0  0  0
    3.6983   -9.2834   39.3742 C   0  0  0  0  0  0  0  0  0  0  0  0
    3.1453   -4.1210   34.1235 C   0  0  0  0  0  0  0  0  0  0  0  0
    4.0660   -3.1673   34.5686 C   0  0  0  0  0  0  0  0  0  0  0  0
    5.2257   -3.4756   35.2288 O   0  0  0  0  0  0  0  0  0  0  0  0
    5.3638   -4.8040   35.7177 C   0  0  0  0  0  0  0  0  0  0  0  0
    6.5658   -1.3888   35.0729 H   0  0  0  0  0  0  0  0  0  0  0  0
    6.3923    0.0505   34.0675 H   0  0  0  0  0  0  0  0  0  0  0  0
    6.0739   -1.5301   33.3431 H   0  0  0  0  0  0  0  0  0  0  0  0
    2.3948   -0.3705   33.5511 H   0  0  0  0  0  0  0  0  0  0  0  0
    0.7688   -2.0677   32.7875 H   0  0  0  0  0  0  0  0  0  0  0  0
    1.8062   -4.4320   30.8909 H   0  0  0  0  0  0  0  0  0  0  0  0
    0.4331   -6.1506   29.8340 H   0  0  0  0  0  0  0  0  0  0  0  0
   -0.7810   -7.6239   35.4823 H   0  0  0  0  0  0  0  0  0  0  0  0
   -1.7516   -8.8560   34.9866 H   0  0  0  0  0  0  0  0  0  0  0  0
   -0.1186   -3.9954   35.1774 H   0  0  0  0  0  0  0  0  0  0  0  0
   -1.2783   -5.2639   35.2280 H   0  0  0  0  0  0  0  0  0  0  0  0
    0.2328   -5.2905   37.1311 H   0  0  0  0  0  0  0  0  0  0  0  0
    1.0153   -7.5477   39.5283 H   0  0  0  0  0  0  0  0  0  0  0  0
    0.0206   -7.4510   38.1353 H   0  0  0  0  0  0  0  0  0  0  0  0
    1.2957   -8.5771   38.0163 H   0  0  0  0  0  0  0  0  0  0  0  0
    2.8076   -6.7765   39.6671 H   0  0  0  0  0  0  0  0  0  0  0  0
    3.7324   -6.2508   38.3562 H   0  0  0  0  0  0  0  0  0  0  0  0
    4.4402   -7.7951   36.4002 H   0  0  0  0  0  0  0  0  0  0  0  0
    5.7097   -9.8906   36.1191 H   0  0  0  0  0  0  0  0  0  0  0  0
    5.7106  -11.6039   37.9116 H   0  0  0  0  0  0  0  0  0  0  0  0
    4.4364  -11.2126   40.0012 H   0  0  0  0  0  0  0  0  0  0  0  0
    3.1513   -9.1253   40.3013 H   0  0  0  0  0  0  0  0  0  0  0  0
    3.3439   -5.1817   34.2404 H   0  0  0  0  0  0  0  0  0  0  0  0
    4.5172   -5.0838   36.3516 H   0  0  0  0  0  0  0  0  0  0  0  0
    5.4955   -5.5127   34.8938 H   0  0  0  0  0  0  0  0  0  0  0  0
    6.2669   -4.8409   36.3344 H   0  0  0  0  0  0  0  0  0  0  0  0
  1  2  1  0
  2  3  1  0
  3  4  2  0
  4  5  1  0
  5  6  2  0
  6  7  1  0
  7  8  1  0
  8  9  2  0
  9 10  1  0
 10 11  2  0
 11 12  1  0
 12 13  2  0
 13 14  1  0
 13 15  1  0
 15 16  1  0
 16 17  1  0
 17 18  1  0
 18 19  1  0
 19 20  2  0
 19 21  1  0
 21 22  1  0
 21 23  1  0
 23 24  1  0
 24 25  2  0
 25 26  1  0
 26 27  2  0
 27 28  1  0
 28 29  2  0
  6 30  1  0
 30 31  2  0
 31 32  1  0
 32 33  1  0
 31  3  1  0
 16  7  2  0
 29 24  1  0
 15 10  1  0
  1 34  1  0
  1 35  1  0
  1 36  1  0
  4 37  1  0
  5 38  1  0
  8 39  1  0
  9 40  1  0
 14 41  1  0
 14 42  1  0
 17 43  1  0
 17 44  1  0
 18 45  1  0
 22 46  1  0
 22 47  1  0
 22 48  1  0
 23 49  1  0
 23 50  1  0
 25 51  1  0
 26 52  1  0
 27 53  1  0
 28 54  1  0
 29 55  1  0
 30 56  1  0
 33 57  1  0
 33 58  1  0
 33 59  1  0
M  END
>  <Energy>  (1008) 
80.469544171872911

>  <compound_id>  (1008) 
3750

>  <target_id>  (1008) 
1

>  <reference_id>  (1008) 
158

>  <inspiration_ids>  (1008) 
[132, 158]

>  <energy_score>  (1008) 
20.158146976180774

>  <distance_score>  (1008) 
1.5420874933988822

>  <path>  (1008) 
/opt/xchem-fragalysis-2/maxwin/BulkDock/SCRATCH/505734/C3750-P158/C3750-P158.minimised.mol

>  <scratch_subdir>  (1008) 
/opt/xchem-fragalysis-2/maxwin/BulkDock/SCRATCH/505734/C3750-P158

>  <fragmenstein_runtime>  (1008) 
6.7874369621276855

>  <fragmenstein_outcome>  (1008) 
too moved

>  <fragmenstein_mode>  (1008) 
expansion

>  <fragmenstein_error>  (1008) 


$$$$
C3814-P132
     RDKit          3D

 54 57  0  0  0  0  0  0  0  0999 V2000
    6.7285   -0.8094   34.0471 C   0  0  0  0  0  0  0  0  0  0  0  0
    5.3912   -0.4419   33.7215 O   0  0  0  0  0  0  0  0  0  0  0  0
    4.6288   -1.4673   33.2221 C   0  0  0  0  0  0  0  0  0  0  0  0
    3.8647   -1.1244   32.0978 C   0  0  0  0  0  0  0  0  0  0  0  0
    3.0244   -2.0583   31.4943 C   0  0  0  0  0  0  0  0  0  0  0  0
    2.9308   -3.3381   32.0335 C   0  0  0  0  0  0  0  0  0  0  0  0
    2.0283   -4.3613   31.4711 C   0  0  0  0  0  0  0  0  0  0  0  0
    2.3741   -5.1118   30.2711 C   0  0  0  0  0  0  0  0  0  0  0  0
    1.6073   -6.1222   29.8293 C   0  0  0  0  0  0  0  0  0  0  0  0
    0.4944   -6.5591   30.5981 C   0  0  0  0  0  0  0  0  0  0  0  0
   -0.3496   -7.5596   30.4657 N   0  0  0  0  0  0  0  0  0  0  0  0
   -1.1447   -7.5831   31.5891 N   0  0  0  0  0  0  0  0  0  0  0  0
   -0.7801   -6.5923   32.3749 C   0  0  0  0  0  0  0  0  0  0  0  0
   -1.1966   -6.3582   33.6321 N   0  0  0  0  0  0  0  0  0  0  0  0
    0.1948   -5.8424   31.7445 N   0  0  0  0  0  0  0  0  0  0  0  0
    0.8763   -4.6891   32.1115 C   0  0  0  0  0  0  0  0  0  0  0  0
    0.3170   -3.6420   33.0062 C   0  0  0  0  0  0  0  0  0  0  0  0
    0.4526   -3.6570   34.1979 O   0  0  0  0  0  0  0  0  0  0  0  0
   -0.2729   -2.6592   32.1457 N   0  0  0  0  0  0  0  0  0  0  0  0
   -1.7303   -2.9519   31.9554 C   0  0  0  0  0  0  0  0  0  0  0  0
   -0.8069   -1.2881   32.4446 C   0  0  0  0  0  0  0  0  0  0  0  0
   -0.4968   -0.3462   31.2634 C   0  0  0  0  0  0  0  0  0  0  0  0
    0.2223    0.8362   31.4941 C   0  0  0  0  0  0  0  0  0  0  0  0
    0.5449    1.6988   30.4398 C   0  0  0  0  0  0  0  0  0  0  0  0
    0.1373    1.4091   29.1391 C   0  0  0  0  0  0  0  0  0  0  0  0
   -0.5733    0.2435   28.8850 C   0  0  0  0  0  0  0  0  0  0  0  0
   -0.8782   -0.6280   29.9345 C   0  0  0  0  0  0  0  0  0  0  0  0
    3.6897   -3.6798   33.1702 C   0  0  0  0  0  0  0  0  0  0  0  0
    4.5273   -2.7482   33.7879 C   0  0  0  0  0  0  0  0  0  0  0  0
    5.2485   -3.0054   34.9234 O   0  0  0  0  0  0  0  0  0  0  0  0
    4.9719   -4.2094   35.6277 C   0  0  0  0  0  0  0  0  0  0  0  0
    7.1185   -1.6074   33.4049 H   0  0  0  0  0  0  0  0  0  0  0  0
    6.7997   -1.0853   35.1031 H   0  0  0  0  0  0  0  0  0  0  0  0
    7.3592    0.0724   33.8964 H   0  0  0  0  0  0  0  0  0  0  0  0
    3.9279   -0.1176   31.6915 H   0  0  0  0  0  0  0  0  0  0  0  0
    2.4305   -1.7690   30.6299 H   0  0  0  0  0  0  0  0  0  0  0  0
    3.2577   -4.8080   29.7150 H   0  0  0  0  0  0  0  0  0  0  0  0
    1.8927   -6.6657   28.9369 H   0  0  0  0  0  0  0  0  0  0  0  0
   -1.6204   -7.1381   34.1254 H   0  0  0  0  0  0  0  0  0  0  0  0
   -0.7285   -5.6977   34.2546 H   0  0  0  0  0  0  0  0  0  0  0  0
   -2.2312   -3.1107   32.9213 H   0  0  0  0  0  0  0  0  0  0  0  0
   -1.7564   -3.9300   31.4641 H   0  0  0  0  0  0  0  0  0  0  0  0
   -2.3350   -2.3293   31.2849 H   0  0  0  0  0  0  0  0  0  0  0  0
   -1.7996   -1.0982   32.8946 H   0  0  0  0  0  0  0  0  0  0  0  0
   -0.1439   -0.9680   33.2647 H   0  0  0  0  0  0  0  0  0  0  0  0
    0.5604    1.0907   32.4969 H   0  0  0  0  0  0  0  0  0  0  0  0
    1.1069    2.6093   30.6365 H   0  0  0  0  0  0  0  0  0  0  0  0
    0.3756    2.0908   28.3270 H   0  0  0  0  0  0  0  0  0  0  0  0
   -0.8822   -0.0015   27.8699 H   0  0  0  0  0  0  0  0  0  0  0  0
   -1.3960   -1.5426   29.6616 H   0  0  0  0  0  0  0  0  0  0  0  0
    3.5889   -4.6836   33.5703 H   0  0  0  0  0  0  0  0  0  0  0  0
    3.9136   -4.2776   35.9012 H   0  0  0  0  0  0  0  0  0  0  0  0
    5.5545   -4.1954   36.5539 H   0  0  0  0  0  0  0  0  0  0  0  0
    5.2899   -5.0827   35.0490 H   0  0  0  0  0  0  0  0  0  0  0  0
  1  2  1  0
  2  3  1  0
  3  4  2  0
  4  5  1  0
  5  6  2  0
  6  7  1  0
  7  8  1  0
  8  9  2  0
  9 10  1  0
 10 11  2  0
 11 12  1  0
 12 13  2  0
 13 14  1  0
 13 15  1  0
 15 16  1  0
 16 17  1  0
 17 18  2  0
 17 19  1  0
 19 20  1  0
 19 21  1  0
 21 22  1  0
 22 23  2  0
 23 24  1  0
 24 25  2  0
 25 26  1  0
 26 27  2  0
  6 28  1  0
 28 29  2  0
 29 30  1  0
 30 31  1  0
 29  3  1  0
 16  7  2  0
 27 22  1  0
 15 10  1  0
  1 32  1  0
  1 33  1  0
  1 34  1  0
  4 35  1  0
  5 36  1  0
  8 37  1  0
  9 38  1  0
 14 39  1  0
 14 40  1  0
 20 41  1  0
 20 42  1  0
 20 43  1  0
 21 44  1  0
 21 45  1  0
 23 46  1  0
 24 47  1  0
 25 48  1  0
 26 49  1  0
 27 50  1  0
 28 51  1  0
 31 52  1  0
 31 53  1  0
 31 54  1  0
M  END
>  <Energy>  (1009) 
140.53285444236479

>  <compound_id>  (1009) 
3814

>  <target_id>  (1009) 
1

>  <reference_id>  (1009) 
132

>  <inspiration_ids>  (1009) 
[132, 162]

>  <energy_score>  (1009) 
27.5555620195575

>  <distance_score>  (1009) 
2.0212742557255154

>  <path>  (1009) 
/opt/xchem-fragalysis-2/maxwin/BulkDock/SCRATCH/505734/C3814-P132/C3814-P132.minimised.mol

>  <scratch_subdir>  (1009) 
/opt/xchem-fragalysis-2/maxwin/BulkDock/SCRATCH/505734/C3814-P132

>  <fragmenstein_runtime>  (1009) 
7.601216793060303

>  <fragmenstein_outcome>  (1009) 
too moved

>  <fragmenstein_mode>  (1009) 
expansion

>  <fragmenstein_error>  (1009) 


$$$$
C3814-P162
     RDKit          3D

 54 57  0  0  0  0  0  0  0  0999 V2000
    6.8021   -0.8964   34.2640 C   0  0  0  0  0  0  0  0  0  0  0  0
    5.5472   -0.4193   33.7883 O   0  0  0  0  0  0  0  0  0  0  0  0
    4.7090   -1.3970   33.3166 C   0  0  0  0  0  0  0  0  0  0  0  0
    4.0830   -1.0798   32.1032 C   0  0  0  0  0  0  0  0  0  0  0  0
    3.1956   -1.9714   31.5030 C   0  0  0  0  0  0  0  0  0  0  0  0
    2.9025   -3.1730   32.1382 C   0  0  0  0  0  0  0  0  0  0  0  0
    2.0074   -4.1777   31.5359 C   0  0  0  0  0  0  0  0  0  0  0  0
    2.3379   -4.8625   30.2881 C   0  0  0  0  0  0  0  0  0  0  0  0
    1.6032   -5.8898   29.8286 C   0  0  0  0  0  0  0  0  0  0  0  0
    0.5525   -6.4156   30.6259 C   0  0  0  0  0  0  0  0  0  0  0  0
   -0.2510   -7.4473   30.4858 N   0  0  0  0  0  0  0  0  0  0  0  0
   -0.9772   -7.5681   31.6496 N   0  0  0  0  0  0  0  0  0  0  0  0
   -0.6201   -6.5962   32.4621 C   0  0  0  0  0  0  0  0  0  0  0  0
   -0.9356   -6.4627   33.7601 N   0  0  0  0  0  0  0  0  0  0  0  0
    0.2638   -5.7575   31.8080 N   0  0  0  0  0  0  0  0  0  0  0  0
    0.8822   -4.5685   32.1836 C   0  0  0  0  0  0  0  0  0  0  0  0
    0.1761   -3.5524   33.0214 C   0  0  0  0  0  0  0  0  0  0  0  0
    0.1338   -3.5960   34.2186 O   0  0  0  0  0  0  0  0  0  0  0  0
   -0.3372   -2.5739   32.1016 N   0  0  0  0  0  0  0  0  0  0  0  0
   -1.7252   -2.9373   31.6893 C   0  0  0  0  0  0  0  0  0  0  0  0
   -0.9962   -1.2282   32.3512 C   0  0  0  0  0  0  0  0  0  0  0  0
   -0.7900   -0.2761   31.1651 C   0  0  0  0  0  0  0  0  0  0  0  0
    0.4502    0.3539   30.9876 C   0  0  0  0  0  0  0  0  0  0  0  0
    0.7082    1.1277   29.8526 C   0  0  0  0  0  0  0  0  0  0  0  0
   -0.2651    1.2735   28.8685 C   0  0  0  0  0  0  0  0  0  0  0  0
   -1.5076    0.6716   29.0342 C   0  0  0  0  0  0  0  0  0  0  0  0
   -1.7777   -0.0721   30.1868 C   0  0  0  0  0  0  0  0  0  0  0  0
    3.5203   -3.4838   33.3672 C   0  0  0  0  0  0  0  0  0  0  0  0
    4.4196   -2.6032   33.9728 C   0  0  0  0  0  0  0  0  0  0  0  0
    5.0287   -2.8391   35.1762 O   0  0  0  0  0  0  0  0  0  0  0  0
    4.7180   -4.0477   35.8585 C   0  0  0  0  0  0  0  0  0  0  0  0
    7.1469   -1.7899   33.7307 H   0  0  0  0  0  0  0  0  0  0  0  0
    6.7560   -1.0757   35.3421 H   0  0  0  0  0  0  0  0  0  0  0  0
    7.5412   -0.1068   34.0954 H   0  0  0  0  0  0  0  0  0  0  0  0
    4.3040   -0.1312   31.6194 H   0  0  0  0  0  0  0  0  0  0  0  0
    2.7315   -1.7147   30.5536 H   0  0  0  0  0  0  0  0  0  0  0  0
    3.1736   -4.4825   29.7056 H   0  0  0  0  0  0  0  0  0  0  0  0
    1.8525   -6.3669   28.8889 H   0  0  0  0  0  0  0  0  0  0  0  0
   -1.5780   -7.1278   34.1778 H   0  0  0  0  0  0  0  0  0  0  0  0
   -0.8706   -5.5791   34.2719 H   0  0  0  0  0  0  0  0  0  0  0  0
   -2.4336   -3.0256   32.5267 H   0  0  0  0  0  0  0  0  0  0  0  0
   -1.6446   -3.9675   31.3259 H   0  0  0  0  0  0  0  0  0  0  0  0
   -2.1267   -2.4439   30.8032 H   0  0  0  0  0  0  0  0  0  0  0  0
   -1.9974   -1.1539   32.8125 H   0  0  0  0  0  0  0  0  0  0  0  0
   -0.3799   -0.8147   33.1664 H   0  0  0  0  0  0  0  0  0  0  0  0
    1.2346    0.2318   31.7316 H   0  0  0  0  0  0  0  0  0  0  0  0
    1.6769    1.6057   29.7307 H   0  0  0  0  0  0  0  0  0  0  0  0
   -0.0615    1.8639   27.9791 H   0  0  0  0  0  0  0  0  0  0  0  0
   -2.2697    0.7935   28.2676 H   0  0  0  0  0  0  0  0  0  0  0  0
   -2.7663   -0.5094   30.2877 H   0  0  0  0  0  0  0  0  0  0  0  0
    3.2746   -4.4303   33.8393 H   0  0  0  0  0  0  0  0  0  0  0  0
    3.6543   -4.0950   36.1139 H   0  0  0  0  0  0  0  0  0  0  0  0
    5.2850   -4.0572   36.7944 H   0  0  0  0  0  0  0  0  0  0  0  0
    5.0269   -4.9208   35.2745 H   0  0  0  0  0  0  0  0  0  0  0  0
  1  2  1  0
  2  3  1  0
  3  4  2  0
  4  5  1  0
  5  6  2  0
  6  7  1  0
  7  8  1  0
  8  9  2  0
  9 10  1  0
 10 11  2  0
 11 12  1  0
 12 13  2  0
 13 14  1  0
 13 15  1  0
 15 16  1  0
 16 17  1  0
 17 18  2  0
 17 19  1  0
 19 20  1  0
 19 21  1  0
 21 22  1  0
 22 23  2  0
 23 24  1  0
 24 25  2  0
 25 26  1  0
 26 27  2  0
  6 28  1  0
 28 29  2  0
 29 30  1  0
 30 31  1  0
 29  3  1  0
 16  7  2  0
 27 22  1  0
 15 10  1  0
  1 32  1  0
  1 33  1  0
  1 34  1  0
  4 35  1  0
  5 36  1  0
  8 37  1  0
  9 38  1  0
 14 39  1  0
 14 40  1  0
 20 41  1  0
 20 42  1  0
 20 43  1  0
 21 44  1  0
 21 45  1  0
 23 46  1  0
 24 47  1  0
 25 48  1  0
 26 49  1  0
 27 50  1  0
 28 51  1  0
 31 52  1  0
 31 53  1  0
 31 54  1  0
M  END
>  <Energy>  (1010) 
144.61847868865746

>  <compound_id>  (1010) 
3814

>  <target_id>  (1010) 
1

>  <reference_id>  (1010) 
162

>  <inspiration_ids>  (1010) 
[132, 162]

>  <energy_score>  (1010) 
31.641186265850536

>  <distance_score>  (1010) 
1.9281718884820074

>  <path>  (1010) 
/opt/xchem-fragalysis-2/maxwin/BulkDock/SCRATCH/505734/C3814-P162/C3814-P162.minimised.mol

>  <scratch_subdir>  (1010) 
/opt/xchem-fragalysis-2/maxwin/BulkDock/SCRATCH/505734/C3814-P162

>  <fragmenstein_runtime>  (1010) 
7.366715431213379

>  <fragmenstein_outcome>  (1010) 
too moved

>  <fragmenstein_mode>  (1010) 
expansion

>  <fragmenstein_error>  (1010) 


$$$$
C3848-P132
     RDKit          3D

 51 54  0  0  0  0  0  0  0  0999 V2000
    6.2436   -1.2364   33.8604 C   0  0  0  0  0  0  0  0  0  0  0  0
    5.0313   -1.1915   34.6118 O   0  0  0  0  0  0  0  0  0  0  0  0
    4.1466   -2.1250   34.1387 C   0  0  0  0  0  0  0  0  0  0  0  0
    3.1731   -1.7010   33.2337 C   0  0  0  0  0  0  0  0  0  0  0  0
    2.2375   -2.6115   32.7460 C   0  0  0  0  0  0  0  0  0  0  0  0
    2.2651   -3.9414   33.1801 C   0  0  0  0  0  0  0  0  0  0  0  0
    1.3385   -4.9341   32.6044 C   0  0  0  0  0  0  0  0  0  0  0  0
    1.4873   -5.2989   31.1938 C   0  0  0  0  0  0  0  0  0  0  0  0
    0.7191   -6.2291   30.6125 C   0  0  0  0  0  0  0  0  0  0  0  0
   -0.2400   -6.9250   31.3786 C   0  0  0  0  0  0  0  0  0  0  0  0
   -1.0582   -7.9016   31.0660 N   0  0  0  0  0  0  0  0  0  0  0  0
   -1.6927   -8.2795   32.2152 N   0  0  0  0  0  0  0  0  0  0  0  0
   -1.2818   -7.5145   33.2044 C   0  0  0  0  0  0  0  0  0  0  0  0
   -1.6142   -7.6765   34.5049 N   0  0  0  0  0  0  0  0  0  0  0  0
   -0.3736   -6.5835   32.7218 N   0  0  0  0  0  0  0  0  0  0  0  0
    0.3779   -5.5655   33.3312 C   0  0  0  0  0  0  0  0  0  0  0  0
    0.0735   -5.0615   34.7048 C   0  0  0  0  0  0  0  0  0  0  0  0
   -0.4748   -4.0466   34.8505 O   0  0  0  0  0  0  0  0  0  0  0  0
    0.5515   -6.0942   35.7400 N   0  0  0  0  0  0  0  0  0  0  0  0
    0.5394   -6.0500   37.1801 C   0  0  0  0  0  0  0  0  0  0  0  0
    1.8246   -6.5493   37.7682 C   0  0  0  0  0  0  0  0  0  0  0  0
    2.9507   -5.7172   37.8197 C   0  0  0  0  0  0  0  0  0  0  0  0
    4.1406   -6.1713   38.3911 C   0  0  0  0  0  0  0  0  0  0  0  0
    4.2213   -7.4642   38.9037 C   0  0  0  0  0  0  0  0  0  0  0  0
    3.1085   -8.3006   38.8544 C   0  0  0  0  0  0  0  0  0  0  0  0
    1.9156   -7.8455   38.2906 C   0  0  0  0  0  0  0  0  0  0  0  0
    3.2395   -4.3566   34.1009 C   0  0  0  0  0  0  0  0  0  0  0  0
    4.1821   -3.4502   34.5855 C   0  0  0  0  0  0  0  0  0  0  0  0
    5.1124   -3.7856   35.5330 O   0  0  0  0  0  0  0  0  0  0  0  0
    5.7491   -5.0399   35.3134 C   0  0  0  0  0  0  0  0  0  0  0  0
    6.7583   -2.1947   33.9871 H   0  0  0  0  0  0  0  0  0  0  0  0
    6.0592   -1.0417   32.7980 H   0  0  0  0  0  0  0  0  0  0  0  0
    6.9012   -0.4481   34.2390 H   0  0  0  0  0  0  0  0  0  0  0  0
    3.1401   -0.6620   32.9178 H   0  0  0  0  0  0  0  0  0  0  0  0
    1.4825   -2.2721   32.0397 H   0  0  0  0  0  0  0  0  0  0  0  0
    2.2414   -4.7780   30.6071 H   0  0  0  0  0  0  0  0  0  0  0  0
    0.8580   -6.4815   29.5743 H   0  0  0  0  0  0  0  0  0  0  0  0
   -1.8289   -8.6553   34.7345 H   0  0  0  0  0  0  0  0  0  0  0  0
   -1.0854   -7.2181   35.2410 H   0  0  0  0  0  0  0  0  0  0  0  0
    1.0671   -6.8279   35.2720 H   0  0  0  0  0  0  0  0  0  0  0  0
   -0.3057   -6.6605   37.5150 H   0  0  0  0  0  0  0  0  0  0  0  0
    0.3362   -5.0218   37.4987 H   0  0  0  0  0  0  0  0  0  0  0  0
    2.9010   -4.6992   37.4340 H   0  0  0  0  0  0  0  0  0  0  0  0
    5.0004   -5.5075   38.4460 H   0  0  0  0  0  0  0  0  0  0  0  0
    5.1444   -7.8126   39.3595 H   0  0  0  0  0  0  0  0  0  0  0  0
    3.1572   -9.3022   39.2755 H   0  0  0  0  0  0  0  0  0  0  0  0
    1.0503   -8.5060   38.2918 H   0  0  0  0  0  0  0  0  0  0  0  0
    3.2463   -5.3838   34.4474 H   0  0  0  0  0  0  0  0  0  0  0  0
    5.0938   -5.8742   35.5775 H   0  0  0  0  0  0  0  0  0  0  0  0
    6.6272   -5.0871   35.9645 H   0  0  0  0  0  0  0  0  0  0  0  0
    6.0938   -5.1372   34.2777 H   0  0  0  0  0  0  0  0  0  0  0  0
  1  2  1  0
  2  3  1  0
  3  4  2  0
  4  5  1  0
  5  6  2  0
  6  7  1  0
  7  8  1  0
  8  9  2  0
  9 10  1  0
 10 11  2  0
 11 12  1  0
 12 13  2  0
 13 14  1  0
 13 15  1  0
 15 16  1  0
 16 17  1  0
 17 18  2  0
 17 19  1  0
 19 20  1  0
 20 21  1  0
 21 22  2  0
 22 23  1  0
 23 24  2  0
 24 25  1  0
 25 26  2  0
  6 27  1  0
 27 28  2  0
 28 29  1  0
 29 30  1  0
 28  3  1  0
 16  7  2  0
 26 21  1  0
 15 10  1  0
  1 31  1  0
  1 32  1  0
  1 33  1  0
  4 34  1  0
  5 35  1  0
  8 36  1  0
  9 37  1  0
 14 38  1  0
 14 39  1  0
 19 40  1  0
 20 41  1  0
 20 42  1  0
 22 43  1  0
 23 44  1  0
 24 45  1  0
 25 46  1  0
 26 47  1  0
 27 48  1  0
 30 49  1  0
 30 50  1  0
 30 51  1  0
M  END
>  <Energy>  (1011) 
66.842983941188805

>  <compound_id>  (1011) 
3848

>  <target_id>  (1011) 
1

>  <reference_id>  (1011) 
132

>  <inspiration_ids>  (1011) 
[132, 163]

>  <energy_score>  (1011) 
-41.0681209542378

>  <distance_score>  (1011) 
0.6495584436515109

>  <path>  (1011) 
/opt/xchem-fragalysis-2/maxwin/BulkDock/SCRATCH/505734/C3848-P132/C3848-P132.minimised.mol

>  <scratch_subdir>  (1011) 
/opt/xchem-fragalysis-2/maxwin/BulkDock/SCRATCH/505734/C3848-P132

>  <fragmenstein_runtime>  (1011) 
6.022131681442261

>  <fragmenstein_outcome>  (1011) 
acceptable

>  <fragmenstein_mode>  (1011) 
expansion

>  <fragmenstein_error>  (1011) 


$$$$
C3848-P163
     RDKit          3D

 51 54  0  0  0  0  0  0  0  0999 V2000
    6.3173   -1.2136   33.8713 C   0  0  0  0  0  0  0  0  0  0  0  0
    5.0932   -1.1540   34.6022 O   0  0  0  0  0  0  0  0  0  0  0  0
    4.2028   -2.0694   34.1045 C   0  0  0  0  0  0  0  0  0  0  0  0
    3.2584   -1.6216   33.1794 C   0  0  0  0  0  0  0  0  0  0  0  0
    2.3188   -2.5107   32.6633 C   0  0  0  0  0  0  0  0  0  0  0  0
    2.3139   -3.8416   33.0909 C   0  0  0  0  0  0  0  0  0  0  0  0
    1.3729   -4.8134   32.5054 C   0  0  0  0  0  0  0  0  0  0  0  0
    1.5199   -5.1903   31.0988 C   0  0  0  0  0  0  0  0  0  0  0  0
    0.7461   -6.1216   30.5250 C   0  0  0  0  0  0  0  0  0  0  0  0
   -0.2098   -6.8138   31.3000 C   0  0  0  0  0  0  0  0  0  0  0  0
   -1.0272   -7.7995   31.0086 N   0  0  0  0  0  0  0  0  0  0  0  0
   -1.6199   -8.1928   32.1777 N   0  0  0  0  0  0  0  0  0  0  0  0
   -1.1953   -7.4140   33.1485 C   0  0  0  0  0  0  0  0  0  0  0  0
   -1.4235   -7.5854   34.4645 N   0  0  0  0  0  0  0  0  0  0  0  0
   -0.3348   -6.4582   32.6388 N   0  0  0  0  0  0  0  0  0  0  0  0
    0.4051   -5.4274   33.2362 C   0  0  0  0  0  0  0  0  0  0  0  0
    0.0913   -4.8776   34.5936 C   0  0  0  0  0  0  0  0  0  0  0  0
   -0.4067   -3.8317   34.6943 O   0  0  0  0  0  0  0  0  0  0  0  0
    0.4981   -5.8937   35.6698 N   0  0  0  0  0  0  0  0  0  0  0  0
    0.4652   -5.7988   37.1029 C   0  0  0  0  0  0  0  0  0  0  0  0
    1.7059   -6.3616   37.7287 C   0  0  0  0  0  0  0  0  0  0  0  0
    1.7361   -7.6821   38.1947 C   0  0  0  0  0  0  0  0  0  0  0  0
    2.8863   -8.1944   38.7970 C   0  0  0  0  0  0  0  0  0  0  0  0
    4.0188   -7.3949   38.9342 C   0  0  0  0  0  0  0  0  0  0  0  0
    4.0016   -6.0816   38.4694 C   0  0  0  0  0  0  0  0  0  0  0  0
    2.8535   -5.5686   37.8630 C   0  0  0  0  0  0  0  0  0  0  0  0
    3.2598   -4.2815   34.0320 C   0  0  0  0  0  0  0  0  0  0  0  0
    4.2071   -3.3975   34.5454 C   0  0  0  0  0  0  0  0  0  0  0  0
    5.1162   -3.7487   35.5076 O   0  0  0  0  0  0  0  0  0  0  0  0
    5.6730   -5.0503   35.3601 C   0  0  0  0  0  0  0  0  0  0  0  0
    6.8109   -2.1836   33.9940 H   0  0  0  0  0  0  0  0  0  0  0  0
    6.1555   -1.0014   32.8085 H   0  0  0  0  0  0  0  0  0  0  0  0
    6.9837   -0.4436   34.2716 H   0  0  0  0  0  0  0  0  0  0  0  0
    3.2519   -0.5799   32.8707 H   0  0  0  0  0  0  0  0  0  0  0  0
    1.5848   -2.1538   31.9441 H   0  0  0  0  0  0  0  0  0  0  0  0
    2.2769   -4.6778   30.5087 H   0  0  0  0  0  0  0  0  0  0  0  0
    0.8904   -6.3830   29.4896 H   0  0  0  0  0  0  0  0  0  0  0  0
   -1.9543   -8.4258   34.7006 H   0  0  0  0  0  0  0  0  0  0  0  0
   -1.5911   -6.7814   35.0660 H   0  0  0  0  0  0  0  0  0  0  0  0
    0.8324   -6.7402   35.2260 H   0  0  0  0  0  0  0  0  0  0  0  0
   -0.4227   -6.3410   37.4455 H   0  0  0  0  0  0  0  0  0  0  0  0
    0.3242   -4.7492   37.3831 H   0  0  0  0  0  0  0  0  0  0  0  0
    0.8568   -8.3191   38.1171 H   0  0  0  0  0  0  0  0  0  0  0  0
    2.8860   -9.2140   39.1758 H   0  0  0  0  0  0  0  0  0  0  0  0
    4.9085   -7.7905   39.4170 H   0  0  0  0  0  0  0  0  0  0  0  0
    4.8787   -5.4495   38.5856 H   0  0  0  0  0  0  0  0  0  0  0  0
    2.8543   -4.5381   37.5092 H   0  0  0  0  0  0  0  0  0  0  0  0
    3.2335   -5.3108   34.3727 H   0  0  0  0  0  0  0  0  0  0  0  0
    4.9626   -5.8263   35.6567 H   0  0  0  0  0  0  0  0  0  0  0  0
    6.5392   -5.1203   36.0251 H   0  0  0  0  0  0  0  0  0  0  0  0
    6.0223   -5.2211   34.3355 H   0  0  0  0  0  0  0  0  0  0  0  0
  1  2  1  0
  2  3  1  0
  3  4  2  0
  4  5  1  0
  5  6  2  0
  6  7  1  0
  7  8  1  0
  8  9  2  0
  9 10  1  0
 10 11  2  0
 11 12  1  0
 12 13  2  0
 13 14  1  0
 13 15  1  0
 15 16  1  0
 16 17  1  0
 17 18  2  0
 17 19  1  0
 19 20  1  0
 20 21  1  0
 21 22  2  0
 22 23  1  0
 23 24  2  0
 24 25  1  0
 25 26  2  0
  6 27  1  0
 27 28  2  0
 28 29  1  0
 29 30  1  0
 28  3  1  0
 16  7  2  0
 26 21  1  0
 15 10  1  0
  1 31  1  0
  1 32  1  0
  1 33  1  0
  4 34  1  0
  5 35  1  0
  8 36  1  0
  9 37  1  0
 14 38  1  0
 14 39  1  0
 19 40  1  0
 20 41  1  0
 20 42  1  0
 22 43  1  0
 23 44  1  0
 24 45  1  0
 25 46  1  0
 26 47  1  0
 27 48  1  0
 30 49  1  0
 30 50  1  0
 30 51  1  0
M  END
>  <Energy>  (1012) 
66.361320037108442

>  <compound_id>  (1012) 
3848

>  <target_id>  (1012) 
1

>  <reference_id>  (1012) 
163

>  <inspiration_ids>  (1012) 
[132, 163]

>  <energy_score>  (1012) 
-41.54978485831833

>  <distance_score>  (1012) 
0.6689530393012683

>  <path>  (1012) 
/opt/xchem-fragalysis-2/maxwin/BulkDock/SCRATCH/505734/C3848-P163/C3848-P163.minimised.mol

>  <scratch_subdir>  (1012) 
/opt/xchem-fragalysis-2/maxwin/BulkDock/SCRATCH/505734/C3848-P163

>  <fragmenstein_runtime>  (1012) 
4.965423583984375

>  <fragmenstein_outcome>  (1012) 
acceptable

>  <fragmenstein_mode>  (1012) 
expansion

>  <fragmenstein_error>  (1012) 


$$$$
C3850-P132
     RDKit          3D

 66 69  0  0  0  0  0  0  0  0999 V2000
    6.7492   -0.9102   33.7184 C   0  0  0  0  0  0  0  0  0  0  0  0
    5.3316   -0.8687   33.8199 O   0  0  0  0  0  0  0  0  0  0  0  0
    4.7109   -1.9971   33.3534 C   0  0  0  0  0  0  0  0  0  0  0  0
    3.6097   -1.7664   32.5197 C   0  0  0  0  0  0  0  0  0  0  0  0
    2.7840   -2.8160   32.1140 C   0  0  0  0  0  0  0  0  0  0  0  0
    3.0423   -4.0949   32.5803 C   0  0  0  0  0  0  0  0  0  0  0  0
    2.0265   -5.2135   32.6267 C   0  0  0  0  0  0  0  0  0  0  0  0
    1.7327   -5.4633   34.1131 C   0  0  0  0  0  0  0  0  0  0  0  0
    0.5275   -6.2669   34.4988 C   0  0  0  0  0  0  0  0  0  0  0  0
    0.0716   -7.1593   33.3959 C   0  0  0  0  0  0  0  0  0  0  0  0
   -1.3721   -7.5707   33.5785 C   0  0  0  0  0  0  0  0  0  0  0  0
   -1.6959   -8.1305   32.2199 C   0  0  0  0  0  0  0  0  0  0  0  0
   -1.1107   -7.0656   31.3122 C   0  0  0  0  0  0  0  0  0  0  0  0
   -1.0386   -7.6048   29.9777 N   0  0  0  0  0  0  0  0  0  0  0  0
    0.2137   -6.6911   31.9346 C   0  0  0  0  0  0  0  0  0  0  0  0
    0.7859   -5.2717   31.7178 C   0  0  0  0  0  0  0  0  0  0  0  0
   -0.1430   -4.1922   31.6813 O   0  0  0  0  0  0  0  0  0  0  0  0
   -0.8707   -3.7374   32.8063 C   0  0  0  0  0  0  0  0  0  0  0  0
   -0.2459   -2.6108   33.6873 C   0  0  0  0  0  0  0  0  0  0  0  0
    0.2910   -1.6859   33.2198 O   0  0  0  0  0  0  0  0  0  0  0  0
   -0.4014   -3.0390   35.1696 N   0  0  0  0  0  0  0  0  0  0  0  0
    0.1514   -2.4696   36.3685 C   0  0  0  0  0  0  0  0  0  0  0  0
    1.4095   -3.2230   36.7394 C   0  0  0  0  0  0  0  0  0  0  0  0
    2.6736   -2.6801   36.4983 C   0  0  0  0  0  0  0  0  0  0  0  0
    3.8375   -3.3927   36.7981 C   0  0  0  0  0  0  0  0  0  0  0  0
    3.7658   -4.6902   37.2732 C   0  0  0  0  0  0  0  0  0  0  0  0
    2.5179   -5.2531   37.4935 C   0  0  0  0  0  0  0  0  0  0  0  0
    1.3499   -4.5191   37.2563 C   0  0  0  0  0  0  0  0  0  0  0  0
    4.2397   -4.3342   33.2896 C   0  0  0  0  0  0  0  0  0  0  0  0
    5.0477   -3.2987   33.7341 C   0  0  0  0  0  0  0  0  0  0  0  0
    6.0735   -3.4828   34.6216 O   0  0  0  0  0  0  0  0  0  0  0  0
    6.4889   -4.8158   34.8965 C   0  0  0  0  0  0  0  0  0  0  0  0
    7.1871   -1.2655   34.6558 H   0  0  0  0  0  0  0  0  0  0  0  0
    7.1005   -1.5105   32.8710 H   0  0  0  0  0  0  0  0  0  0  0  0
    7.1003    0.1148   33.5627 H   0  0  0  0  0  0  0  0  0  0  0  0
    3.3484   -0.7481   32.2407 H   0  0  0  0  0  0  0  0  0  0  0  0
    1.8908   -2.5856   31.5397 H   0  0  0  0  0  0  0  0  0  0  0  0
    2.6072   -6.0863   32.3057 H   0  0  0  0  0  0  0  0  0  0  0  0
    2.5957   -5.9696   34.5656 H   0  0  0  0  0  0  0  0  0  0  0  0
    1.6676   -4.4991   34.6024 H   0  0  0  0  0  0  0  0  0  0  0  0
   -0.2786   -5.6271   34.8452 H   0  0  0  0  0  0  0  0  0  0  0  0
    0.7617   -6.8769   35.3824 H   0  0  0  0  0  0  0  0  0  0  0  0
    0.6917   -8.0411   33.4847 H   0  0  0  0  0  0  0  0  0  0  0  0
   -1.5159   -8.2604   34.4052 H   0  0  0  0  0  0  0  0  0  0  0  0
   -1.9795   -6.6930   33.7950 H   0  0  0  0  0  0  0  0  0  0  0  0
   -2.7595   -8.2722   32.0491 H   0  0  0  0  0  0  0  0  0  0  0  0
   -1.2037   -9.0931   32.0621 H   0  0  0  0  0  0  0  0  0  0  0  0
   -1.7373   -6.1856   31.3547 H   0  0  0  0  0  0  0  0  0  0  0  0
   -0.8327   -6.8470   29.3226 H   0  0  0  0  0  0  0  0  0  0  0  0
   -0.2869   -8.2921   29.9024 H   0  0  0  0  0  0  0  0  0  0  0  0
    0.9612   -7.3578   31.4921 H   0  0  0  0  0  0  0  0  0  0  0  0
    1.1727   -5.2697   30.6889 H   0  0  0  0  0  0  0  0  0  0  0  0
   -1.7783   -3.2724   32.4009 H   0  0  0  0  0  0  0  0  0  0  0  0
   -1.2263   -4.5825   33.3824 H   0  0  0  0  0  0  0  0  0  0  0  0
   -0.9980   -3.8524   35.2253 H   0  0  0  0  0  0  0  0  0  0  0  0
   -0.5925   -2.5452   37.1676 H   0  0  0  0  0  0  0  0  0  0  0  0
    0.3674   -1.4121   36.1865 H   0  0  0  0  0  0  0  0  0  0  0  0
    2.7680   -1.6809   36.0739 H   0  0  0  0  0  0  0  0  0  0  0  0
    4.8006   -2.9098   36.6588 H   0  0  0  0  0  0  0  0  0  0  0  0
    4.6684   -5.2432   37.5102 H   0  0  0  0  0  0  0  0  0  0  0  0
    2.4440   -6.2639   37.8882 H   0  0  0  0  0  0  0  0  0  0  0  0
    0.3865   -4.9820   37.4576 H   0  0  0  0  0  0  0  0  0  0  0  0
    4.4473   -5.3490   33.6092 H   0  0  0  0  0  0  0  0  0  0  0  0
    6.8382   -5.3091   33.9830 H   0  0  0  0  0  0  0  0  0  0  0  0
    5.7061   -5.4052   35.3780 H   0  0  0  0  0  0  0  0  0  0  0  0
    7.3349   -4.7630   35.5885 H   0  0  0  0  0  0  0  0  0  0  0  0
  1  2  1  0
  2  3  1  0
  3  4  2  0
  4  5  1  0
  5  6  2  0
  6  7  1  0
  7  8  1  0
  8  9  1  0
  9 10  1  0
 10 11  1  0
 11 12  1  0
 12 13  1  0
 13 14  1  0
 13 15  1  0
 15 16  1  0
 16 17  1  0
 17 18  1  0
 18 19  1  0
 19 20  2  0
 19 21  1  0
 21 22  1  0
 22 23  1  0
 23 24  2  0
 24 25  1  0
 25 26  2  0
 26 27  1  0
 27 28  2  0
  6 29  1  0
 29 30  2  0
 30 31  1  0
 31 32  1  0
 30  3  1  0
 16  7  1  0
 28 23  1  0
 15 10  1  0
  1 33  1  0
  1 34  1  0
  1 35  1  0
  4 36  1  0
  5 37  1  0
  7 38  1  0
  8 39  1  0
  8 40  1  0
  9 41  1  0
  9 42  1  0
 10 43  1  0
 11 44  1  0
 11 45  1  0
 12 46  1  0
 12 47  1  0
 13 48  1  0
 14 49  1  0
 14 50  1  0
 15 51  1  0
 16 52  1  0
 18 53  1  0
 18 54  1  0
 21 55  1  0
 22 56  1  0
 22 57  1  0
 24 58  1  0
 25 59  1  0
 26 60  1  0
 27 61  1  0
 28 62  1  0
 29 63  1  0
 32 64  1  0
 32 65  1  0
 32 66  1  0
M  END
>  <Energy>  (1013) 
169.74529955199816

>  <compound_id>  (1013) 
3850

>  <target_id>  (1013) 
1

>  <reference_id>  (1013) 
132

>  <inspiration_ids>  (1013) 
[132, 165]

>  <energy_score>  (1013) 
-17.904666745537497

>  <distance_score>  (1013) 
1.7852296306082072

>  <path>  (1013) 
/opt/xchem-fragalysis-2/maxwin/BulkDock/SCRATCH/505734/C3850-P132/C3850-P132.minimised.mol

>  <scratch_subdir>  (1013) 
/opt/xchem-fragalysis-2/maxwin/BulkDock/SCRATCH/505734/C3850-P132

>  <fragmenstein_runtime>  (1013) 
7.536513805389404

>  <fragmenstein_outcome>  (1013) 
too moved

>  <fragmenstein_mode>  (1013) 
expansion

>  <fragmenstein_error>  (1013) 


$$$$
C3850-P165
     RDKit          3D

 66 69  0  0  0  0  0  0  0  0999 V2000
    6.7101   -0.8730   33.7545 C   0  0  0  0  0  0  0  0  0  0  0  0
    5.2925   -0.8087   33.8406 O   0  0  0  0  0  0  0  0  0  0  0  0
    4.6466   -1.9314   33.3983 C   0  0  0  0  0  0  0  0  0  0  0  0
    3.5037   -1.6863   32.6281 C   0  0  0  0  0  0  0  0  0  0  0  0
    2.6576   -2.7278   32.2381 C   0  0  0  0  0  0  0  0  0  0  0  0
    2.9281   -4.0182   32.6573 C   0  0  0  0  0  0  0  0  0  0  0  0
    1.9856   -5.2016   32.5911 C   0  0  0  0  0  0  0  0  0  0  0  0
    2.0157   -5.9095   33.9801 C   0  0  0  0  0  0  0  0  0  0  0  0
    0.7299   -6.4991   34.4845 C   0  0  0  0  0  0  0  0  0  0  0  0
    0.0895   -7.2747   33.3833 C   0  0  0  0  0  0  0  0  0  0  0  0
   -1.3733   -7.5554   33.6357 C   0  0  0  0  0  0  0  0  0  0  0  0
   -1.7573   -8.1151   32.2926 C   0  0  0  0  0  0  0  0  0  0  0  0
   -1.1344   -7.0985   31.3575 C   0  0  0  0  0  0  0  0  0  0  0  0
   -1.0632   -7.6888   30.0433 N   0  0  0  0  0  0  0  0  0  0  0  0
    0.2003   -6.7038   31.9555 C   0  0  0  0  0  0  0  0  0  0  0  0
    0.5595   -5.1898   31.9658 C   0  0  0  0  0  0  0  0  0  0  0  0
   -0.4768   -4.5655   32.7330 O   0  0  0  0  0  0  0  0  0  0  0  0
   -0.7098   -3.1759   32.5472 C   0  0  0  0  0  0  0  0  0  0  0  0
   -0.2489   -2.3123   33.7427 C   0  0  0  0  0  0  0  0  0  0  0  0
    0.1683   -1.2278   33.6393 O   0  0  0  0  0  0  0  0  0  0  0  0
   -0.4414   -3.1970   34.9971 N   0  0  0  0  0  0  0  0  0  0  0  0
   -0.0744   -2.9673   36.3628 C   0  0  0  0  0  0  0  0  0  0  0  0
    1.3245   -3.4646   36.6371 C   0  0  0  0  0  0  0  0  0  0  0  0
    1.5703   -4.7319   37.1928 C   0  0  0  0  0  0  0  0  0  0  0  0
    2.8776   -5.1635   37.4419 C   0  0  0  0  0  0  0  0  0  0  0  0
    3.9458   -4.3118   37.1831 C   0  0  0  0  0  0  0  0  0  0  0  0
    3.7115   -3.0510   36.6405 C   0  0  0  0  0  0  0  0  0  0  0  0
    2.4155   -2.6434   36.3334 C   0  0  0  0  0  0  0  0  0  0  0  0
    4.1719   -4.2623   33.2858 C   0  0  0  0  0  0  0  0  0  0  0  0
    4.9973   -3.2404   33.7305 C   0  0  0  0  0  0  0  0  0  0  0  0
    6.0524   -3.4518   34.5770 O   0  0  0  0  0  0  0  0  0  0  0  0
    6.4489   -4.7936   34.8378 C   0  0  0  0  0  0  0  0  0  0  0  0
    7.0786    0.1468   33.6040 H   0  0  0  0  0  0  0  0  0  0  0  0
    7.1329   -1.2352   34.6961 H   0  0  0  0  0  0  0  0  0  0  0  0
    7.0592   -1.4759   32.9083 H   0  0  0  0  0  0  0  0  0  0  0  0
    3.2392   -0.6618   32.3740 H   0  0  0  0  0  0  0  0  0  0  0  0
    1.7772   -2.4760   31.6649 H   0  0  0  0  0  0  0  0  0  0  0  0
    2.5465   -5.8597   31.9099 H   0  0  0  0  0  0  0  0  0  0  0  0
    2.3750   -5.2308   34.7482 H   0  0  0  0  0  0  0  0  0  0  0  0
    2.7567   -6.7199   33.9370 H   0  0  0  0  0  0  0  0  0  0  0  0
    0.0631   -5.7326   34.8674 H   0  0  0  0  0  0  0  0  0  0  0  0
    0.9300   -7.1577   35.3394 H   0  0  0  0  0  0  0  0  0  0  0  0
    0.6185   -8.2091   33.3441 H   0  0  0  0  0  0  0  0  0  0  0  0
   -1.5447   -8.2312   34.4707 H   0  0  0  0  0  0  0  0  0  0  0  0
   -1.9031   -6.6257   33.8542 H   0  0  0  0  0  0  0  0  0  0  0  0
   -2.8276   -8.2073   32.1342 H   0  0  0  0  0  0  0  0  0  0  0  0
   -1.3201   -9.1045   32.1392 H   0  0  0  0  0  0  0  0  0  0  0  0
   -1.7511   -6.2124   31.3666 H   0  0  0  0  0  0  0  0  0  0  0  0
   -0.3130   -8.3825   29.9964 H   0  0  0  0  0  0  0  0  0  0  0  0
   -0.8728   -6.9624   29.3561 H   0  0  0  0  0  0  0  0  0  0  0  0
    0.9903   -7.2364   31.4199 H   0  0  0  0  0  0  0  0  0  0  0  0
    0.5678   -4.8006   30.9410 H   0  0  0  0  0  0  0  0  0  0  0  0
   -0.2816   -2.8093   31.6118 H   0  0  0  0  0  0  0  0  0  0  0  0
   -1.7945   -3.0378   32.4752 H   0  0  0  0  0  0  0  0  0  0  0  0
   -0.9076   -4.0601   34.7350 H   0  0  0  0  0  0  0  0  0  0  0  0
   -0.8021   -3.4780   37.0018 H   0  0  0  0  0  0  0  0  0  0  0  0
   -0.1387   -1.8930   36.5662 H   0  0  0  0  0  0  0  0  0  0  0  0
    0.7384   -5.3900   37.4342 H   0  0  0  0  0  0  0  0  0  0  0  0
    3.0510   -6.1433   37.8772 H   0  0  0  0  0  0  0  0  0  0  0  0
    4.9581   -4.6130   37.4334 H   0  0  0  0  0  0  0  0  0  0  0  0
    4.5411   -2.3722   36.4579 H   0  0  0  0  0  0  0  0  0  0  0  0
    2.2587   -1.6639   35.8835 H   0  0  0  0  0  0  0  0  0  0  0  0
    4.4273   -5.2867   33.5306 H   0  0  0  0  0  0  0  0  0  0  0  0
    5.6587   -5.3824   35.3091 H   0  0  0  0  0  0  0  0  0  0  0  0
    7.2946   -4.7603   35.5314 H   0  0  0  0  0  0  0  0  0  0  0  0
    6.7936   -5.2781   33.9179 H   0  0  0  0  0  0  0  0  0  0  0  0
  1  2  1  0
  2  3  1  0
  3  4  2  0
  4  5  1  0
  5  6  2  0
  6  7  1  0
  7  8  1  0
  8  9  1  0
  9 10  1  0
 10 11  1  0
 11 12  1  0
 12 13  1  0
 13 14  1  0
 13 15  1  0
 15 16  1  0
 16 17  1  0
 17 18  1  0
 18 19  1  0
 19 20  2  0
 19 21  1  0
 21 22  1  0
 22 23  1  0
 23 24  2  0
 24 25  1  0
 25 26  2  0
 26 27  1  0
 27 28  2  0
  6 29  1  0
 29 30  2  0
 30 31  1  0
 31 32  1  0
 30  3  1  0
 16  7  1  0
 28 23  1  0
 15 10  1  0
  1 33  1  0
  1 34  1  0
  1 35  1  0
  4 36  1  0
  5 37  1  0
  7 38  1  0
  8 39  1  0
  8 40  1  0
  9 41  1  0
  9 42  1  0
 10 43  1  0
 11 44  1  0
 11 45  1  0
 12 46  1  0
 12 47  1  0
 13 48  1  0
 14 49  1  0
 14 50  1  0
 15 51  1  0
 16 52  1  0
 18 53  1  0
 18 54  1  0
 21 55  1  0
 22 56  1  0
 22 57  1  0
 24 58  1  0
 25 59  1  0
 26 60  1  0
 27 61  1  0
 28 62  1  0
 29 63  1  0
 32 64  1  0
 32 65  1  0
 32 66  1  0
M  END
>  <Energy>  (1014) 
155.43915710174022

>  <compound_id>  (1014) 
3850

>  <target_id>  (1014) 
1

>  <reference_id>  (1014) 
165

>  <inspiration_ids>  (1014) 
[132, 165]

>  <energy_score>  (1014) 
-32.21080919579407

>  <distance_score>  (1014) 
1.503783960874779

>  <path>  (1014) 
/opt/xchem-fragalysis-2/maxwin/BulkDock/SCRATCH/505734/C3850-P165/C3850-P165.minimised.mol

>  <scratch_subdir>  (1014) 
/opt/xchem-fragalysis-2/maxwin/BulkDock/SCRATCH/505734/C3850-P165

>  <fragmenstein_runtime>  (1014) 
8.962580919265747

>  <fragmenstein_outcome>  (1014) 
too moved

>  <fragmenstein_mode>  (1014) 
expansion

>  <fragmenstein_error>  (1014) 


$$$$
C3818-P132
     RDKit          3D

 58 62  0  0  0  0  0  0  0  0999 V2000
    6.4703   -1.1399   33.9480 C   0  0  0  0  0  0  0  0  0  0  0  0
    5.1651   -0.9975   34.5055 O   0  0  0  0  0  0  0  0  0  0  0  0
    4.3352   -2.0373   34.1862 C   0  0  0  0  0  0  0  0  0  0  0  0
    3.1055   -1.6757   33.6412 C   0  0  0  0  0  0  0  0  0  0  0  0
    2.1649   -2.6525   33.3209 C   0  0  0  0  0  0  0  0  0  0  0  0
    2.4542   -4.0119   33.5113 C   0  0  0  0  0  0  0  0  0  0  0  0
    1.5036   -5.1284   33.1159 C   0  0  0  0  0  0  0  0  0  0  0  0
    0.9533   -4.7484   31.7137 C   0  0  0  0  0  0  0  0  0  0  0  0
    0.3795   -5.9504   31.0180 C   0  0  0  0  0  0  0  0  0  0  0  0
   -0.4600   -6.7254   31.9428 C   0  0  0  0  0  0  0  0  0  0  0  0
   -1.2763   -7.6751   31.5593 N   0  0  0  0  0  0  0  0  0  0  0  0
   -1.8367   -8.1893   32.6769 N   0  0  0  0  0  0  0  0  0  0  0  0
   -1.3672   -7.5543   33.7248 C   0  0  0  0  0  0  0  0  0  0  0  0
   -1.7013   -7.8533   34.9958 N   0  0  0  0  0  0  0  0  0  0  0  0
   -0.4711   -6.5948   33.3308 N   0  0  0  0  0  0  0  0  0  0  0  0
    0.3352   -5.5920   34.1032 C   0  0  0  0  0  0  0  0  0  0  0  0
   -0.5412   -4.4011   34.6089 C   0  0  0  0  0  0  0  0  0  0  0  0
   -1.1338   -4.7458   35.9804 C   0  0  0  0  0  0  0  0  0  0  0  0
   -0.0002   -5.2530   36.8652 C   0  0  0  0  0  0  0  0  0  0  0  0
    0.6398   -4.1075   37.6249 C   0  0  0  0  0  0  0  0  0  0  0  0
   -0.0229   -3.6889   38.7987 C   0  0  0  0  0  0  0  0  0  0  0  0
    0.3810   -2.5540   39.4999 C   0  0  0  0  0  0  0  0  0  0  0  0
    1.4775   -1.8215   39.0612 C   0  0  0  0  0  0  0  0  0  0  0  0
    2.1523   -2.2179   37.9122 C   0  0  0  0  0  0  0  0  0  0  0  0
    1.7273   -3.3420   37.1967 C   0  0  0  0  0  0  0  0  0  0  0  0
    1.0240   -6.2389   35.7634 S   0  0  0  0  0  0  0  0  0  0  0  0
    0.6370   -7.6246   35.9702 O   0  0  0  0  0  0  0  0  0  0  0  0
    2.4266   -5.9377   35.9297 O   0  0  0  0  0  0  0  0  0  0  0  0
    3.7140   -4.3541   34.0215 C   0  0  0  0  0  0  0  0  0  0  0  0
    4.6180   -3.3804   34.4422 C   0  0  0  0  0  0  0  0  0  0  0  0
    5.7772   -3.6926   35.0947 O   0  0  0  0  0  0  0  0  0  0  0  0
    5.6986   -4.8078   35.9809 C   0  0  0  0  0  0  0  0  0  0  0  0
    7.1370   -1.6304   34.6631 H   0  0  0  0  0  0  0  0  0  0  0  0
    6.8640   -0.1349   33.7664 H   0  0  0  0  0  0  0  0  0  0  0  0
    6.4678   -1.6742   32.9906 H   0  0  0  0  0  0  0  0  0  0  0  0
    2.8766   -0.6250   33.4804 H   0  0  0  0  0  0  0  0  0  0  0  0
    1.2134   -2.3195   32.9127 H   0  0  0  0  0  0  0  0  0  0  0  0
    2.1334   -6.0196   32.9624 H   0  0  0  0  0  0  0  0  0  0  0  0
    1.7380   -4.3264   31.0717 H   0  0  0  0  0  0  0  0  0  0  0  0
    0.1728   -3.9816   31.8064 H   0  0  0  0  0  0  0  0  0  0  0  0
    1.1844   -6.5886   30.6438 H   0  0  0  0  0  0  0  0  0  0  0  0
   -0.2024   -5.6323   30.1472 H   0  0  0  0  0  0  0  0  0  0  0  0
   -2.1325   -8.7897   34.9814 H   0  0  0  0  0  0  0  0  0  0  0  0
   -0.8892   -8.0158   35.6067 H   0  0  0  0  0  0  0  0  0  0  0  0
   -1.3085   -4.1428   33.8756 H   0  0  0  0  0  0  0  0  0  0  0  0
    0.0638   -3.5010   34.7411 H   0  0  0  0  0  0  0  0  0  0  0  0
   -1.6567   -3.8817   36.4050 H   0  0  0  0  0  0  0  0  0  0  0  0
   -1.8716   -5.5400   35.8812 H   0  0  0  0  0  0  0  0  0  0  0  0
   -0.3977   -5.9649   37.6007 H   0  0  0  0  0  0  0  0  0  0  0  0
   -0.8927   -4.2350   39.1657 H   0  0  0  0  0  0  0  0  0  0  0  0
   -0.1539   -2.2490   40.3958 H   0  0  0  0  0  0  0  0  0  0  0  0
    1.8050   -0.9432   39.6109 H   0  0  0  0  0  0  0  0  0  0  0  0
    3.0081   -1.6462   37.5582 H   0  0  0  0  0  0  0  0  0  0  0  0
    2.2754   -3.5777   36.2955 H   0  0  0  0  0  0  0  0  0  0  0  0
    3.9819   -5.4018   34.1265 H   0  0  0  0  0  0  0  0  0  0  0  0
    5.7286   -5.7515   35.4279 H   0  0  0  0  0  0  0  0  0  0  0  0
    4.8161   -4.7503   36.6261 H   0  0  0  0  0  0  0  0  0  0  0  0
    6.5817   -4.7778   36.6267 H   0  0  0  0  0  0  0  0  0  0  0  0
  1  2  1  0
  2  3  1  0
  3  4  2  0
  4  5  1  0
  5  6  2  0
  6  7  1  0
  7  8  1  0
  8  9  1  0
  9 10  1  0
 10 11  2  0
 11 12  1  0
 12 13  2  0
 13 14  1  0
 13 15  1  0
 15 16  1  0
 16 17  1  0
 17 18  1  0
 18 19  1  0
 19 20  1  0
 20 21  2  0
 21 22  1  0
 22 23  2  0
 23 24  1  0
 24 25  2  0
 19 26  1  0
 26 27  2  0
 26 28  2  0
  6 29  1  0
 29 30  2  0
 30 31  1  0
 31 32  1  0
 30  3  1  0
 16  7  1  0
 25 20  1  0
 15 10  1  0
 26 16  1  0
  1 33  1  0
  1 34  1  0
  1 35  1  0
  4 36  1  0
  5 37  1  0
  7 38  1  0
  8 39  1  0
  8 40  1  0
  9 41  1  0
  9 42  1  0
 14 43  1  0
 14 44  1  0
 17 45  1  0
 17 46  1  0
 18 47  1  0
 18 48  1  0
 19 49  1  0
 21 50  1  0
 22 51  1  0
 23 52  1  0
 24 53  1  0
 25 54  1  0
 29 55  1  0
 32 56  1  0
 32 57  1  0
 32 58  1  0
M  END
>  <Energy>  (1015) 
80.125720789852011

>  <compound_id>  (1015) 
3818

>  <target_id>  (1015) 
1

>  <reference_id>  (1015) 
132

>  <inspiration_ids>  (1015) 
[132, 168]

>  <energy_score>  (1015) 
-68.80702846551014

>  <distance_score>  (1015) 
1.2162453803301174

>  <path>  (1015) 
/opt/xchem-fragalysis-2/maxwin/BulkDock/SCRATCH/505734/C3818-P132/C3818-P132.minimised.mol

>  <scratch_subdir>  (1015) 
/opt/xchem-fragalysis-2/maxwin/BulkDock/SCRATCH/505734/C3818-P132

>  <fragmenstein_runtime>  (1015) 
6.333738088607788

>  <fragmenstein_outcome>  (1015) 
too moved

>  <fragmenstein_mode>  (1015) 
expansion

>  <fragmenstein_error>  (1015) 


$$$$
C3818-P168
     RDKit          3D

 58 62  0  0  0  0  0  0  0  0999 V2000
    6.4853   -1.1460   33.9438 C   0  0  0  0  0  0  0  0  0  0  0  0
    5.1806   -1.0012   34.5019 O   0  0  0  0  0  0  0  0  0  0  0  0
    4.3488   -2.0406   34.1866 C   0  0  0  0  0  0  0  0  0  0  0  0
    3.1175   -1.6773   33.6470 C   0  0  0  0  0  0  0  0  0  0  0  0
    2.1734   -2.6526   33.3339 C   0  0  0  0  0  0  0  0  0  0  0  0
    2.4602   -4.0126   33.5262 C   0  0  0  0  0  0  0  0  0  0  0  0
    1.5022   -5.1268   33.1418 C   0  0  0  0  0  0  0  0  0  0  0  0
    0.9448   -4.7470   31.7424 C   0  0  0  0  0  0  0  0  0  0  0  0
    0.3587   -5.9471   31.0556 C   0  0  0  0  0  0  0  0  0  0  0  0
   -0.4878   -6.7074   31.9860 C   0  0  0  0  0  0  0  0  0  0  0  0
   -1.3180   -7.6477   31.6074 N   0  0  0  0  0  0  0  0  0  0  0  0
   -1.8823   -8.1500   32.7281 N   0  0  0  0  0  0  0  0  0  0  0  0
   -1.3984   -7.5210   33.7733 C   0  0  0  0  0  0  0  0  0  0  0  0
   -1.7249   -7.8228   35.0446 N   0  0  0  0  0  0  0  0  0  0  0  0
   -0.4909   -6.5720   33.3744 N   0  0  0  0  0  0  0  0  0  0  0  0
    0.3377   -5.5795   34.1400 C   0  0  0  0  0  0  0  0  0  0  0  0
   -0.5111   -4.3756   34.6600 C   0  0  0  0  0  0  0  0  0  0  0  0
   -1.0966   -4.7163   36.0365 C   0  0  0  0  0  0  0  0  0  0  0  0
    0.0428   -5.2333   36.9077 C   0  0  0  0  0  0  0  0  0  0  0  0
    0.7022   -4.0927   37.6564 C   0  0  0  0  0  0  0  0  0  0  0  0
    0.0430   -3.6509   38.8241 C   0  0  0  0  0  0  0  0  0  0  0  0
    0.4633   -2.5159   39.5148 C   0  0  0  0  0  0  0  0  0  0  0  0
    1.5741   -1.8074   39.0727 C   0  0  0  0  0  0  0  0  0  0  0  0
    2.2470   -2.2283   37.9312 C   0  0  0  0  0  0  0  0  0  0  0  0
    1.8056   -3.3525   37.2259 C   0  0  0  0  0  0  0  0  0  0  0  0
    1.0354   -6.2349   35.7920 S   0  0  0  0  0  0  0  0  0  0  0  0
    0.6203   -7.6112   36.0042 O   0  0  0  0  0  0  0  0  0  0  0  0
    2.4458   -5.9621   35.9376 O   0  0  0  0  0  0  0  0  0  0  0  0
    3.7220   -4.3568   34.0292 C   0  0  0  0  0  0  0  0  0  0  0  0
    4.6305   -3.3840   34.4429 C   0  0  0  0  0  0  0  0  0  0  0  0
    5.7916   -3.6955   35.0921 O   0  0  0  0  0  0  0  0  0  0  0  0
    5.7253   -4.8209   35.9659 C   0  0  0  0  0  0  0  0  0  0  0  0
    7.1523   -1.6343   34.6602 H   0  0  0  0  0  0  0  0  0  0  0  0
    6.8793   -0.1419   33.7585 H   0  0  0  0  0  0  0  0  0  0  0  0
    6.4818   -1.6836   32.9884 H   0  0  0  0  0  0  0  0  0  0  0  0
    2.8900   -0.6261   33.4865 H   0  0  0  0  0  0  0  0  0  0  0  0
    1.2201   -2.3173   32.9321 H   0  0  0  0  0  0  0  0  0  0  0  0
    2.1258   -6.0220   32.9873 H   0  0  0  0  0  0  0  0  0  0  0  0
    1.7283   -4.3329   31.0939 H   0  0  0  0  0  0  0  0  0  0  0  0
    0.1700   -3.9748   31.8376 H   0  0  0  0  0  0  0  0  0  0  0  0
    1.1562   -6.5955   30.6877 H   0  0  0  0  0  0  0  0  0  0  0  0
   -0.2173   -5.6312   30.1797 H   0  0  0  0  0  0  0  0  0  0  0  0
   -2.1506   -8.7605   35.0442 H   0  0  0  0  0  0  0  0  0  0  0  0
   -0.9124   -7.9664   35.6591 H   0  0  0  0  0  0  0  0  0  0  0  0
   -1.2720   -4.0920   33.9304 H   0  0  0  0  0  0  0  0  0  0  0  0
    0.1132   -3.4893   34.7956 H   0  0  0  0  0  0  0  0  0  0  0  0
   -1.6074   -3.8474   36.4659 H   0  0  0  0  0  0  0  0  0  0  0  0
   -1.8407   -5.5065   35.9508 H   0  0  0  0  0  0  0  0  0  0  0  0
   -0.3527   -5.9386   37.6508 H   0  0  0  0  0  0  0  0  0  0  0  0
   -0.8359   -4.1791   39.1948 H   0  0  0  0  0  0  0  0  0  0  0  0
   -0.0685   -2.1923   40.4061 H   0  0  0  0  0  0  0  0  0  0  0  0
    1.9151   -0.9292   39.6143 H   0  0  0  0  0  0  0  0  0  0  0  0
    3.1145   -1.6756   37.5753 H   0  0  0  0  0  0  0  0  0  0  0  0
    2.3542   -3.6081   36.3306 H   0  0  0  0  0  0  0  0  0  0  0  0
    3.9880   -5.4047   34.1352 H   0  0  0  0  0  0  0  0  0  0  0  0
    5.7594   -5.7581   35.4021 H   0  0  0  0  0  0  0  0  0  0  0  0
    4.8455   -4.7771   36.6159 H   0  0  0  0  0  0  0  0  0  0  0  0
    6.6112   -4.7918   36.6079 H   0  0  0  0  0  0  0  0  0  0  0  0
  1  2  1  0
  2  3  1  0
  3  4  2  0
  4  5  1  0
  5  6  2  0
  6  7  1  0
  7  8  1  0
  8  9  1  0
  9 10  1  0
 10 11  2  0
 11 12  1  0
 12 13  2  0
 13 14  1  0
 13 15  1  0
 15 16  1  0
 16 17  1  0
 17 18  1  0
 18 19  1  0
 19 20  1  0
 20 21  2  0
 21 22  1  0
 22 23  2  0
 23 24  1  0
 24 25  2  0
 19 26  1  0
 26 27  2  0
 26 28  2  0
  6 29  1  0
 29 30  2  0
 30 31  1  0
 31 32  1  0
 30  3  1  0
 16  7  1  0
 25 20  1  0
 15 10  1  0
 26 16  1  0
  1 33  1  0
  1 34  1  0
  1 35  1  0
  4 36  1  0
  5 37  1  0
  7 38  1  0
  8 39  1  0
  8 40  1  0
  9 41  1  0
  9 42  1  0
 14 43  1  0
 14 44  1  0
 17 45  1  0
 17 46  1  0
 18 47  1  0
 18 48  1  0
 19 49  1  0
 21 50  1  0
 22 51  1  0
 23 52  1  0
 24 53  1  0
 25 54  1  0
 29 55  1  0
 32 56  1  0
 32 57  1  0
 32 58  1  0
M  END
>  <Energy>  (1016) 
80.644543812057947

>  <compound_id>  (1016) 
3818

>  <target_id>  (1016) 
1

>  <reference_id>  (1016) 
168

>  <inspiration_ids>  (1016) 
[132, 168]

>  <energy_score>  (1016) 
-68.2882054433066

>  <distance_score>  (1016) 
1.2152271876875291

>  <path>  (1016) 
/opt/xchem-fragalysis-2/maxwin/BulkDock/SCRATCH/505734/C3818-P168/C3818-P168.minimised.mol

>  <scratch_subdir>  (1016) 
/opt/xchem-fragalysis-2/maxwin/BulkDock/SCRATCH/505734/C3818-P168

>  <fragmenstein_runtime>  (1016) 
5.949298858642578

>  <fragmenstein_outcome>  (1016) 
too moved

>  <fragmenstein_mode>  (1016) 
expansion

>  <fragmenstein_error>  (1016) 


$$$$
C3818-P132
     RDKit          2D

  0  0  0  0  0  0  0  0  0  0999 V2000
M  END
>  <compound_id>  (1017) 
3818

>  <target_id>  (1017) 
1

>  <reference_id>  (1017) 
132

>  <inspiration_ids>  (1017) 
[132, 175]

>  <energy_score>  (1017) 
nan

>  <distance_score>  (1017) 
nan

>  <path>  (1017) 
/opt/xchem-fragalysis-2/maxwin/BulkDock/SCRATCH/505734/C3818-P132/C3818-P132.minimised.mol

>  <scratch_subdir>  (1017) 
/opt/xchem-fragalysis-2/maxwin/BulkDock/SCRATCH/505734/C3818-P132

>  <fragmenstein_runtime>  (1017) 
0.7839000225067139

>  <fragmenstein_outcome>  (1017) 
too distant

>  <fragmenstein_mode>  (1017) 
expansion

>  <fragmenstein_error>  (1017) 
DistanceError: hit1

$$$$
C3819-P132
     RDKit          3D

 55 59  0  0  0  0  0  0  0  0999 V2000
    6.1242   -1.2473   33.9368 C   0  0  0  0  0  0  0  0  0  0  0  0
    4.9877   -1.1937   34.7995 O   0  0  0  0  0  0  0  0  0  0  0  0
    4.0472   -2.1168   34.4193 C   0  0  0  0  0  0  0  0  0  0  0  0
    2.9309   -1.6351   33.7361 C   0  0  0  0  0  0  0  0  0  0  0  0
    1.9539   -2.5245   33.3025 C   0  0  0  0  0  0  0  0  0  0  0  0
    2.1052   -3.8967   33.5392 C   0  0  0  0  0  0  0  0  0  0  0  0
    1.2698   -4.8618   32.7999 C   0  0  0  0  0  0  0  0  0  0  0  0
    0.3849   -5.6339   33.4613 C   0  0  0  0  0  0  0  0  0  0  0  0
   -0.3389   -6.5953   32.7584 N   0  0  0  0  0  0  0  0  0  0  0  0
   -1.2291   -7.5616   33.1813 C   0  0  0  0  0  0  0  0  0  0  0  0
   -1.5201   -7.7917   34.4861 N   0  0  0  0  0  0  0  0  0  0  0  0
   -1.6731   -8.2274   32.1363 N   0  0  0  0  0  0  0  0  0  0  0  0
   -1.0539   -7.7419   31.0088 N   0  0  0  0  0  0  0  0  0  0  0  0
   -0.2274   -6.7930   31.3916 C   0  0  0  0  0  0  0  0  0  0  0  0
    0.7131   -5.9960   30.6936 C   0  0  0  0  0  0  0  0  0  0  0  0
    1.4559   -5.0764   31.3448 C   0  0  0  0  0  0  0  0  0  0  0  0
    2.3866   -4.2808   30.6841 N   0  0  0  0  0  0  0  0  0  0  0  0
    3.8205   -4.6118   30.6829 C   0  0  0  0  0  0  0  0  0  0  0  0
    4.2374   -5.5063   29.5517 C   0  0  0  0  0  0  0  0  0  0  0  0
    3.5299   -6.4340   28.9239 N   0  0  0  0  0  0  0  0  0  0  0  0
    3.7090   -6.2008   27.5743 N   0  0  0  0  0  0  0  0  0  0  0  0
    4.4731   -5.1233   27.5044 C   0  0  0  0  0  0  0  0  0  0  0  0
    4.0954   -3.7935   27.0574 C   0  0  0  0  0  0  0  0  0  0  0  0
    3.0310   -3.1806   27.7446 C   0  0  0  0  0  0  0  0  0  0  0  0
    2.9405   -1.7994   27.8021 C   0  0  0  0  0  0  0  0  0  0  0  0
    3.8580   -1.0355   27.0770 C   0  0  0  0  0  0  0  0  0  0  0  0
    4.8389   -1.6492   26.2964 C   0  0  0  0  0  0  0  0  0  0  0  0
    4.9777   -3.0310   26.3077 C   0  0  0  0  0  0  0  0  0  0  0  0
    5.2385   -5.1417   28.6681 N   0  0  0  0  0  0  0  0  0  0  0  0
    3.1911   -4.3640   34.2956 C   0  0  0  0  0  0  0  0  0  0  0  0
    4.1647   -3.4747   34.7523 C   0  0  0  0  0  0  0  0  0  0  0  0
    5.2647   -3.8302   35.4827 O   0  0  0  0  0  0  0  0  0  0  0  0
    5.3542   -5.1761   35.9284 C   0  0  0  0  0  0  0  0  0  0  0  0
    6.7717   -0.4010   34.1851 H   0  0  0  0  0  0  0  0  0  0  0  0
    6.6990   -2.1661   34.0891 H   0  0  0  0  0  0  0  0  0  0  0  0
    5.8322   -1.1519   32.8847 H   0  0  0  0  0  0  0  0  0  0  0  0
    2.8337   -0.5716   33.5352 H   0  0  0  0  0  0  0  0  0  0  0  0
    1.1031   -2.1500   32.7358 H   0  0  0  0  0  0  0  0  0  0  0  0
    0.1994   -5.5552   34.5251 H   0  0  0  0  0  0  0  0  0  0  0  0
   -0.8373   -7.5229   35.1843 H   0  0  0  0  0  0  0  0  0  0  0  0
   -1.7769   -8.7808   34.6386 H   0  0  0  0  0  0  0  0  0  0  0  0
    0.8409   -6.1473   29.6306 H   0  0  0  0  0  0  0  0  0  0  0  0
    2.2916   -3.3163   30.9948 H   0  0  0  0  0  0  0  0  0  0  0  0
    4.1350   -4.9898   31.6558 H   0  0  0  0  0  0  0  0  0  0  0  0
    4.3600   -3.6605   30.5766 H   0  0  0  0  0  0  0  0  0  0  0  0
    2.3006   -3.7829   28.2795 H   0  0  0  0  0  0  0  0  0  0  0  0
    2.1361   -1.3202   28.3530 H   0  0  0  0  0  0  0  0  0  0  0  0
    3.7669    0.0485   27.0671 H   0  0  0  0  0  0  0  0  0  0  0  0
    5.5089   -1.0404   25.6972 H   0  0  0  0  0  0  0  0  0  0  0  0
    5.8120   -3.4959   25.7885 H   0  0  0  0  0  0  0  0  0  0  0  0
    5.8749   -4.3886   28.8678 H   0  0  0  0  0  0  0  0  0  0  0  0
    3.2865   -5.4318   34.4620 H   0  0  0  0  0  0  0  0  0  0  0  0
    6.2471   -5.2624   36.5550 H   0  0  0  0  0  0  0  0  0  0  0  0
    4.4893   -5.4510   36.5413 H   0  0  0  0  0  0  0  0  0  0  0  0
    5.4740   -5.8616   35.0830 H   0  0  0  0  0  0  0  0  0  0  0  0
  1  2  1  0
  2  3  1  0
  3  4  2  0
  4  5  1  0
  5  6  2  0
  6  7  1  0
  7  8  2  0
  8  9  1  0
  9 10  1  0
 10 11  1  0
 10 12  2  0
 12 13  1  0
 13 14  2  0
 14 15  1  0
 15 16  2  0
 16 17  1  0
 17 18  1  0
 18 19  1  0
 19 20  2  0
 20 21  1  0
 21 22  2  0
 22 23  1  0
 23 24  2  0
 24 25  1  0
 25 26  2  0
 26 27  1  0
 27 28  2  0
 22 29  1  0
  6 30  1  0
 30 31  2  0
 31 32  1  0
 32 33  1  0
 31  3  1  0
 16  7  1  0
 29 19  1  0
 14  9  1  0
 28 23  1  0
  1 34  1  0
  1 35  1  0
  1 36  1  0
  4 37  1  0
  5 38  1  0
  8 39  1  0
 11 40  1  0
 11 41  1  0
 15 42  1  0
 17 43  1  0
 18 44  1  0
 18 45  1  0
 24 46  1  0
 25 47  1  0
 26 48  1  0
 27 49  1  0
 28 50  1  0
 29 51  1  0
 30 52  1  0
 33 53  1  0
 33 54  1  0
 33 55  1  0
M  END
>  <Energy>  (1018) 
146.20304017183631

>  <compound_id>  (1018) 
3819

>  <target_id>  (1018) 
1

>  <reference_id>  (1018) 
132

>  <inspiration_ids>  (1018) 
[132, 177]

>  <energy_score>  (1018) 
13.469950132461406

>  <distance_score>  (1018) 
1.5879359030573528

>  <path>  (1018) 
/opt/xchem-fragalysis-2/maxwin/BulkDock/SCRATCH/505734/C3819-P132/C3819-P132.minimised.mol

>  <scratch_subdir>  (1018) 
/opt/xchem-fragalysis-2/maxwin/BulkDock/SCRATCH/505734/C3819-P132

>  <fragmenstein_runtime>  (1018) 
5.7573325634002686

>  <fragmenstein_outcome>  (1018) 
too moved

>  <fragmenstein_mode>  (1018) 
expansion

>  <fragmenstein_error>  (1018) 


$$$$
C3819-P177
     RDKit          3D

 55 59  0  0  0  0  0  0  0  0999 V2000
    6.2467   -1.2294   33.9298 C   0  0  0  0  0  0  0  0  0  0  0  0
    5.1058   -1.1973   34.7879 O   0  0  0  0  0  0  0  0  0  0  0  0
    4.1373   -2.0535   34.3308 C   0  0  0  0  0  0  0  0  0  0  0  0
    3.0334   -1.4774   33.7053 C   0  0  0  0  0  0  0  0  0  0  0  0
    2.0140   -2.2894   33.2209 C   0  0  0  0  0  0  0  0  0  0  0  0
    2.1162   -3.6805   33.3260 C   0  0  0  0  0  0  0  0  0  0  0  0
    1.1520   -4.5524   32.6261 C   0  0  0  0  0  0  0  0  0  0  0  0
    0.4155   -5.4044   33.3663 C   0  0  0  0  0  0  0  0  0  0  0  0
   -0.3883   -6.3408   32.7292 N   0  0  0  0  0  0  0  0  0  0  0  0
   -1.1916   -7.3390   33.2324 C   0  0  0  0  0  0  0  0  0  0  0  0
   -1.3730   -7.5665   34.5572 N   0  0  0  0  0  0  0  0  0  0  0  0
   -1.6945   -8.0297   32.2335 N   0  0  0  0  0  0  0  0  0  0  0  0
   -1.2596   -7.4819   31.0528 N   0  0  0  0  0  0  0  0  0  0  0  0
   -0.4755   -6.4711   31.3548 C   0  0  0  0  0  0  0  0  0  0  0  0
    0.2429   -5.5408   30.5646 C   0  0  0  0  0  0  0  0  0  0  0  0
    1.0238   -4.6039   31.1473 C   0  0  0  0  0  0  0  0  0  0  0  0
    1.6902   -3.6485   30.3873 N   0  0  0  0  0  0  0  0  0  0  0  0
    3.1157   -3.8048   30.0753 C   0  0  0  0  0  0  0  0  0  0  0  0
    3.3920   -4.6439   28.8870 C   0  0  0  0  0  0  0  0  0  0  0  0
    2.6453   -5.5829   28.3266 N   0  0  0  0  0  0  0  0  0  0  0  0
    3.1148   -5.7326   27.0396 N   0  0  0  0  0  0  0  0  0  0  0  0
    3.8755   -4.6744   26.8377 C   0  0  0  0  0  0  0  0  0  0  0  0
    3.4193   -3.4163   26.2476 C   0  0  0  0  0  0  0  0  0  0  0  0
    2.1433   -2.9982   26.6822 C   0  0  0  0  0  0  0  0  0  0  0  0
    1.9587   -1.6838   27.0602 C   0  0  0  0  0  0  0  0  0  0  0  0
    3.0035   -0.7773   26.8740 C   0  0  0  0  0  0  0  0  0  0  0  0
    4.1910   -1.1676   26.2608 C   0  0  0  0  0  0  0  0  0  0  0  0
    4.3988   -2.4898   25.9176 C   0  0  0  0  0  0  0  0  0  0  0  0
    4.5039   -4.4923   28.0705 N   0  0  0  0  0  0  0  0  0  0  0  0
    3.2068   -4.2482   34.0091 C   0  0  0  0  0  0  0  0  0  0  0  0
    4.2071   -3.4364   34.5465 C   0  0  0  0  0  0  0  0  0  0  0  0
    5.2817   -3.8890   35.2610 O   0  0  0  0  0  0  0  0  0  0  0  0
    5.2404   -5.2298   35.7278 C   0  0  0  0  0  0  0  0  0  0  0  0
    6.9190   -0.4234   34.2392 H   0  0  0  0  0  0  0  0  0  0  0  0
    6.7909   -2.1744   34.0228 H   0  0  0  0  0  0  0  0  0  0  0  0
    5.9669   -1.0527   32.8848 H   0  0  0  0  0  0  0  0  0  0  0  0
    2.9690   -0.3972   33.6056 H   0  0  0  0  0  0  0  0  0  0  0  0
    1.1511   -1.8283   32.7451 H   0  0  0  0  0  0  0  0  0  0  0  0
    0.4335   -5.4241   34.4483 H   0  0  0  0  0  0  0  0  0  0  0  0
   -0.6522   -7.2652   35.2012 H   0  0  0  0  0  0  0  0  0  0  0  0
   -1.5820   -8.5646   34.7221 H   0  0  0  0  0  0  0  0  0  0  0  0
    0.1463   -5.5933   29.4838 H   0  0  0  0  0  0  0  0  0  0  0  0
    1.5550   -2.7255   30.7874 H   0  0  0  0  0  0  0  0  0  0  0  0
    3.5195   -2.8010   29.8919 H   0  0  0  0  0  0  0  0  0  0  0  0
    3.6642   -4.1949   30.9393 H   0  0  0  0  0  0  0  0  0  0  0  0
    1.3740   -3.7278   26.9320 H   0  0  0  0  0  0  0  0  0  0  0  0
    1.0180   -1.3633   27.4984 H   0  0  0  0  0  0  0  0  0  0  0  0
    2.8597    0.2662   27.1491 H   0  0  0  0  0  0  0  0  0  0  0  0
    4.9745   -0.4414   26.0900 H   0  0  0  0  0  0  0  0  0  0  0  0
    5.3731   -2.8039   25.5532 H   0  0  0  0  0  0  0  0  0  0  0  0
    5.1685   -3.7528   28.2184 H   0  0  0  0  0  0  0  0  0  0  0  0
    3.2706   -5.3286   34.0834 H   0  0  0  0  0  0  0  0  0  0  0  0
    4.3307   -5.4250   36.3055 H   0  0  0  0  0  0  0  0  0  0  0  0
    5.3379   -5.9350   34.8961 H   0  0  0  0  0  0  0  0  0  0  0  0
    6.0964   -5.3797   36.3927 H   0  0  0  0  0  0  0  0  0  0  0  0
  1  2  1  0
  2  3  1  0
  3  4  2  0
  4  5  1  0
  5  6  2  0
  6  7  1  0
  7  8  2  0
  8  9  1  0
  9 10  1  0
 10 11  1  0
 10 12  2  0
 12 13  1  0
 13 14  2  0
 14 15  1  0
 15 16  2  0
 16 17  1  0
 17 18  1  0
 18 19  1  0
 19 20  2  0
 20 21  1  0
 21 22  2  0
 22 23  1  0
 23 24  2  0
 24 25  1  0
 25 26  2  0
 26 27  1  0
 27 28  2  0
 22 29  1  0
  6 30  1  0
 30 31  2  0
 31 32  1  0
 32 33  1  0
 31  3  1  0
 16  7  1  0
 29 19  1  0
 14  9  1  0
 28 23  1  0
  1 34  1  0
  1 35  1  0
  1 36  1  0
  4 37  1  0
  5 38  1  0
  8 39  1  0
 11 40  1  0
 11 41  1  0
 15 42  1  0
 17 43  1  0
 18 44  1  0
 18 45  1  0
 24 46  1  0
 25 47  1  0
 26 48  1  0
 27 49  1  0
 28 50  1  0
 29 51  1  0
 30 52  1  0
 33 53  1  0
 33 54  1  0
 33 55  1  0
M  END
>  <Energy>  (1019) 
156.27388024533425

>  <compound_id>  (1019) 
3819

>  <target_id>  (1019) 
1

>  <reference_id>  (1019) 
177

>  <inspiration_ids>  (1019) 
[132, 177]

>  <energy_score>  (1019) 
23.540790205961116

>  <distance_score>  (1019) 
1.6183449439635895

>  <path>  (1019) 
/opt/xchem-fragalysis-2/maxwin/BulkDock/SCRATCH/505734/C3819-P177/C3819-P177.minimised.mol

>  <scratch_subdir>  (1019) 
/opt/xchem-fragalysis-2/maxwin/BulkDock/SCRATCH/505734/C3819-P177

>  <fragmenstein_runtime>  (1019) 
6.79448390007019

>  <fragmenstein_outcome>  (1019) 
too moved

>  <fragmenstein_mode>  (1019) 
expansion

>  <fragmenstein_error>  (1019) 


$$$$
C3820-P132
     RDKit          3D

 48 52  0  0  0  0  0  0  0  0999 V2000
    6.3453   -1.1490   34.0041 C   0  0  0  0  0  0  0  0  0  0  0  0
    5.0334   -1.1332   34.5669 O   0  0  0  0  0  0  0  0  0  0  0  0
    4.2420   -2.1189   34.0430 C   0  0  0  0  0  0  0  0  0  0  0  0
    3.0708   -1.7029   33.4193 C   0  0  0  0  0  0  0  0  0  0  0  0
    2.1947   -2.6467   32.8830 C   0  0  0  0  0  0  0  0  0  0  0  0
    2.4963   -4.0191   32.9193 C   0  0  0  0  0  0  0  0  0  0  0  0
    1.5047   -4.9675   32.3325 C   0  0  0  0  0  0  0  0  0  0  0  0
    1.0055   -4.7065   30.9723 C   0  0  0  0  0  0  0  0  0  0  0  0
    0.1043   -5.4903   30.3642 C   0  0  0  0  0  0  0  0  0  0  0  0
   -0.4579   -6.5802   31.0621 C   0  0  0  0  0  0  0  0  0  0  0  0
   -1.2978   -7.5251   30.7020 N   0  0  0  0  0  0  0  0  0  0  0  0
   -1.6531   -8.2094   31.8326 N   0  0  0  0  0  0  0  0  0  0  0  0
   -1.0182   -7.6769   32.8539 C   0  0  0  0  0  0  0  0  0  0  0  0
   -1.2622   -7.9317   34.1591 N   0  0  0  0  0  0  0  0  0  0  0  0
   -0.0954   -6.7450   32.3885 N   0  0  0  0  0  0  0  0  0  0  0  0
    0.9696   -6.0376   32.9912 C   0  0  0  0  0  0  0  0  0  0  0  0
    1.7595   -6.8004   34.3360 S   0  0  0  0  0  0  0  0  0  0  0  0
    0.9479   -6.0974   35.6679 C   0  0  0  0  0  0  0  0  0  0  0  0
    0.6091   -4.8469   35.8638 N   0  0  0  0  0  0  0  0  0  0  0  0
    0.1290   -4.7904   37.1615 N   0  0  0  0  0  0  0  0  0  0  0  0
    0.2065   -6.0120   37.6506 C   0  0  0  0  0  0  0  0  0  0  0  0
   -0.0699   -6.3768   38.9931 C   0  0  0  0  0  0  0  0  0  0  0  0
    0.2048   -7.5466   39.6757 C   0  0  0  0  0  0  0  0  0  0  0  0
   -0.2413   -7.3788   41.0104 C   0  0  0  0  0  0  0  0  0  0  0  0
   -0.7782   -6.1149   41.1067 C   0  0  0  0  0  0  0  0  0  0  0  0
   -0.6747   -5.5155   39.8772 N   0  0  0  0  0  0  0  0  0  0  0  0
    0.6694   -6.8981   36.7292 O   0  0  0  0  0  0  0  0  0  0  0  0
    3.6935   -4.4131   33.5273 C   0  0  0  0  0  0  0  0  0  0  0  0
    4.5168   -3.4815   34.1662 C   0  0  0  0  0  0  0  0  0  0  0  0
    5.6102   -3.8687   34.8936 O   0  0  0  0  0  0  0  0  0  0  0  0
    5.3332   -4.9079   35.8295 C   0  0  0  0  0  0  0  0  0  0  0  0
    6.7394   -0.1292   34.0540 H   0  0  0  0  0  0  0  0  0  0  0  0
    7.0071   -1.7884   34.5955 H   0  0  0  0  0  0  0  0  0  0  0  0
    6.3499   -1.4579   32.9521 H   0  0  0  0  0  0  0  0  0  0  0  0
    2.8282   -0.6447   33.3715 H   0  0  0  0  0  0  0  0  0  0  0  0
    1.2640   -2.2905   32.4443 H   0  0  0  0  0  0  0  0  0  0  0  0
    1.4151   -3.8557   30.4309 H   0  0  0  0  0  0  0  0  0  0  0  0
   -0.2422   -5.2569   29.3659 H   0  0  0  0  0  0  0  0  0  0  0  0
   -1.7304   -8.8331   34.3112 H   0  0  0  0  0  0  0  0  0  0  0  0
   -0.5147   -7.8560   34.8342 H   0  0  0  0  0  0  0  0  0  0  0  0
    0.6759   -8.4333   39.2667 H   0  0  0  0  0  0  0  0  0  0  0  0
   -0.1804   -8.1076   41.8093 H   0  0  0  0  0  0  0  0  0  0  0  0
   -1.2345   -5.5929   41.9375 H   0  0  0  0  0  0  0  0  0  0  0  0
   -1.0032   -4.5853   39.6454 H   0  0  0  0  0  0  0  0  0  0  0  0
    4.0027   -5.4506   33.5164 H   0  0  0  0  0  0  0  0  0  0  0  0
    4.3841   -4.7452   36.3533 H   0  0  0  0  0  0  0  0  0  0  0  0
    6.1331   -4.9060   36.5762 H   0  0  0  0  0  0  0  0  0  0  0  0
    5.3402   -5.8845   35.3356 H   0  0  0  0  0  0  0  0  0  0  0  0
  1  2  1  0
  2  3  1  0
  3  4  2  0
  4  5  1  0
  5  6  2  0
  6  7  1  0
  7  8  1  0
  8  9  2  0
  9 10  1  0
 10 11  2  0
 11 12  1  0
 12 13  2  0
 13 14  1  0
 13 15  1  0
 15 16  1  0
 16 17  1  0
 17 18  1  0
 18 19  2  0
 19 20  1  0
 20 21  2  0
 21 22  1  0
 22 23  2  0
 23 24  1  0
 24 25  2  0
 25 26  1  0
 21 27  1  0
  6 28  1  0
 28 29  2  0
 29 30  1  0
 30 31  1  0
 29  3  1  0
 16  7  2  0
 27 18  1  0
 15 10  1  0
 26 22  1  0
  1 32  1  0
  1 33  1  0
  1 34  1  0
  4 35  1  0
  5 36  1  0
  8 37  1  0
  9 38  1  0
 14 39  1  0
 14 40  1  0
 23 41  1  0
 24 42  1  0
 25 43  1  0
 26 44  1  0
 28 45  1  0
 31 46  1  0
 31 47  1  0
 31 48  1  0
M  END
>  <Energy>  (1020) 
98.830890614524108

>  <compound_id>  (1020) 
3820

>  <target_id>  (1020) 
1

>  <reference_id>  (1020) 
132

>  <inspiration_ids>  (1020) 
[132, 183]

>  <energy_score>  (1020) 
-52.424632579668355

>  <distance_score>  (1020) 
1.0090005270070588

>  <path>  (1020) 
/opt/xchem-fragalysis-2/maxwin/BulkDock/SCRATCH/505734/C3820-P132/C3820-P132.minimised.mol

>  <scratch_subdir>  (1020) 
/opt/xchem-fragalysis-2/maxwin/BulkDock/SCRATCH/505734/C3820-P132

>  <fragmenstein_runtime>  (1020) 
4.388738632202148

>  <fragmenstein_outcome>  (1020) 
too moved

>  <fragmenstein_mode>  (1020) 
expansion

>  <fragmenstein_error>  (1020) 


$$$$
C3820-P183
     RDKit          3D

 48 52  0  0  0  0  0  0  0  0999 V2000
    6.3564   -1.1519   34.0116 C   0  0  0  0  0  0  0  0  0  0  0  0
    5.0387   -1.1269   34.5593 O   0  0  0  0  0  0  0  0  0  0  0  0
    4.2455   -2.1110   34.0366 C   0  0  0  0  0  0  0  0  0  0  0  0
    3.0630   -1.6956   33.4343 C   0  0  0  0  0  0  0  0  0  0  0  0
    2.1831   -2.6385   32.9006 C   0  0  0  0  0  0  0  0  0  0  0  0
    2.4904   -4.0100   32.9182 C   0  0  0  0  0  0  0  0  0  0  0  0
    1.4935   -4.9584   32.3405 C   0  0  0  0  0  0  0  0  0  0  0  0
    0.9730   -4.6887   30.9904 C   0  0  0  0  0  0  0  0  0  0  0  0
    0.0689   -5.4739   30.3891 C   0  0  0  0  0  0  0  0  0  0  0  0
   -0.4801   -6.5705   31.0873 C   0  0  0  0  0  0  0  0  0  0  0  0
   -1.3301   -7.5078   30.7338 N   0  0  0  0  0  0  0  0  0  0  0  0
   -1.6641   -8.2036   31.8639 N   0  0  0  0  0  0  0  0  0  0  0  0
   -1.0081   -7.6847   32.8790 C   0  0  0  0  0  0  0  0  0  0  0  0
   -1.2374   -7.9410   34.1880 N   0  0  0  0  0  0  0  0  0  0  0  0
   -0.0937   -6.7485   32.4054 N   0  0  0  0  0  0  0  0  0  0  0  0
    0.9771   -6.0395   32.9969 C   0  0  0  0  0  0  0  0  0  0  0  0
    1.8086   -6.8173   34.3064 S   0  0  0  0  0  0  0  0  0  0  0  0
    1.0013   -6.1764   35.6715 C   0  0  0  0  0  0  0  0  0  0  0  0
    0.9148   -4.9245   36.0477 N   0  0  0  0  0  0  0  0  0  0  0  0
    0.4701   -4.9611   37.3584 N   0  0  0  0  0  0  0  0  0  0  0  0
    0.3193   -6.2319   37.6769 C   0  0  0  0  0  0  0  0  0  0  0  0
    0.0705   -6.7304   38.9838 C   0  0  0  0  0  0  0  0  0  0  0  0
   -0.2316   -6.0477   40.1461 C   0  0  0  0  0  0  0  0  0  0  0  0
   -0.3237   -6.9964   41.1935 C   0  0  0  0  0  0  0  0  0  0  0  0
   -0.0771   -8.2340   40.6451 C   0  0  0  0  0  0  0  0  0  0  0  0
    0.1561   -8.0666   39.3023 N   0  0  0  0  0  0  0  0  0  0  0  0
    0.5750   -7.0516   36.6206 O   0  0  0  0  0  0  0  0  0  0  0  0
    3.6992   -4.4028   33.5015 C   0  0  0  0  0  0  0  0  0  0  0  0
    4.5256   -3.4733   34.1380 C   0  0  0  0  0  0  0  0  0  0  0  0
    5.6268   -3.8826   34.8414 O   0  0  0  0  0  0  0  0  0  0  0  0
    5.2959   -4.8035   35.8801 C   0  0  0  0  0  0  0  0  0  0  0  0
    7.0103   -1.7837   34.6196 H   0  0  0  0  0  0  0  0  0  0  0  0
    6.3728   -1.4746   32.9639 H   0  0  0  0  0  0  0  0  0  0  0  0
    6.7513   -0.1320   34.0522 H   0  0  0  0  0  0  0  0  0  0  0  0
    2.8132   -0.6384   33.4021 H   0  0  0  0  0  0  0  0  0  0  0  0
    1.2436   -2.2820   32.4811 H   0  0  0  0  0  0  0  0  0  0  0  0
    1.3695   -3.8317   30.4494 H   0  0  0  0  0  0  0  0  0  0  0  0
   -0.2921   -5.2379   29.3961 H   0  0  0  0  0  0  0  0  0  0  0  0
   -1.7199   -8.8378   34.3437 H   0  0  0  0  0  0  0  0  0  0  0  0
   -0.4631   -7.9388   34.8382 H   0  0  0  0  0  0  0  0  0  0  0  0
   -0.3674   -4.9758   40.2293 H   0  0  0  0  0  0  0  0  0  0  0  0
   -0.5505   -6.7951   42.2327 H   0  0  0  0  0  0  0  0  0  0  0  0
   -0.0600   -9.2215   41.0857 H   0  0  0  0  0  0  0  0  0  0  0  0
    0.3207   -8.8205   38.6419 H   0  0  0  0  0  0  0  0  0  0  0  0
    4.0166   -5.4374   33.4818 H   0  0  0  0  0  0  0  0  0  0  0  0
    5.1768   -5.8143   35.4775 H   0  0  0  0  0  0  0  0  0  0  0  0
    4.3965   -4.4978   36.4273 H   0  0  0  0  0  0  0  0  0  0  0  0
    6.1303   -4.8216   36.5877 H   0  0  0  0  0  0  0  0  0  0  0  0
  1  2  1  0
  2  3  1  0
  3  4  2  0
  4  5  1  0
  5  6  2  0
  6  7  1  0
  7  8  1  0
  8  9  2  0
  9 10  1  0
 10 11  2  0
 11 12  1  0
 12 13  2  0
 13 14  1  0
 13 15  1  0
 15 16  1  0
 16 17  1  0
 17 18  1  0
 18 19  2  0
 19 20  1  0
 20 21  2  0
 21 22  1  0
 22 23  2  0
 23 24  1  0
 24 25  2  0
 25 26  1  0
 21 27  1  0
  6 28  1  0
 28 29  2  0
 29 30  1  0
 30 31  1  0
 29  3  1  0
 16  7  2  0
 27 18  1  0
 15 10  1  0
 26 22  1  0
  1 32  1  0
  1 33  1  0
  1 34  1  0
  4 35  1  0
  5 36  1  0
  8 37  1  0
  9 38  1  0
 14 39  1  0
 14 40  1  0
 23 41  1  0
 24 42  1  0
 25 43  1  0
 26 44  1  0
 28 45  1  0
 31 46  1  0
 31 47  1  0
 31 48  1  0
M  END
>  <Energy>  (1021) 
104.09183960736388

>  <compound_id>  (1021) 
3820

>  <target_id>  (1021) 
1

>  <reference_id>  (1021) 
183

>  <inspiration_ids>  (1021) 
[132, 183]

>  <energy_score>  (1021) 
-47.163683586829166

>  <distance_score>  (1021) 
0.9679215701483282

>  <path>  (1021) 
/opt/xchem-fragalysis-2/maxwin/BulkDock/SCRATCH/505734/C3820-P183/C3820-P183.minimised.mol

>  <scratch_subdir>  (1021) 
/opt/xchem-fragalysis-2/maxwin/BulkDock/SCRATCH/505734/C3820-P183

>  <fragmenstein_runtime>  (1021) 
4.366777181625366

>  <fragmenstein_outcome>  (1021) 
acceptable

>  <fragmenstein_mode>  (1021) 
expansion

>  <fragmenstein_error>  (1021) 


$$$$
C3820-P132
     RDKit          3D

 48 52  0  0  0  0  0  0  0  0999 V2000
    6.4113   -1.2502   33.8153 C   0  0  0  0  0  0  0  0  0  0  0  0
    5.1081   -1.1379   34.3848 O   0  0  0  0  0  0  0  0  0  0  0  0
    4.2769   -2.0882   33.8488 C   0  0  0  0  0  0  0  0  0  0  0  0
    3.4821   -1.7163   32.7621 C   0  0  0  0  0  0  0  0  0  0  0  0
    2.5972   -2.6350   32.2044 C   0  0  0  0  0  0  0  0  0  0  0  0
    2.4786   -3.9091   32.7652 C   0  0  0  0  0  0  0  0  0  0  0  0
    1.5487   -4.9118   32.2078 C   0  0  0  0  0  0  0  0  0  0  0  0
    1.7881   -5.4813   30.8874 C   0  0  0  0  0  0  0  0  0  0  0  0
    0.9906   -6.4236   30.3630 C   0  0  0  0  0  0  0  0  0  0  0  0
   -0.0561   -6.9797   31.1315 C   0  0  0  0  0  0  0  0  0  0  0  0
   -0.8989   -7.9622   30.9052 N   0  0  0  0  0  0  0  0  0  0  0  0
   -1.5616   -8.2080   32.0812 N   0  0  0  0  0  0  0  0  0  0  0  0
   -1.1461   -7.3444   32.9832 C   0  0  0  0  0  0  0  0  0  0  0  0
   -1.3912   -7.3821   34.3100 N   0  0  0  0  0  0  0  0  0  0  0  0
   -0.2621   -6.4510   32.3964 N   0  0  0  0  0  0  0  0  0  0  0  0
    0.4499   -5.3378   32.8878 C   0  0  0  0  0  0  0  0  0  0  0  0
   -0.2965   -4.3185   34.1063 S   0  0  0  0  0  0  0  0  0  0  0  0
   -1.1048   -3.3763   32.8535 C   0  0  0  0  0  0  0  0  0  0  0  0
   -2.0610   -3.8721   32.0978 N   0  0  0  0  0  0  0  0  0  0  0  0
   -2.1881   -3.0424   31.0155 N   0  0  0  0  0  0  0  0  0  0  0  0
   -1.2949   -2.0888   31.1626 C   0  0  0  0  0  0  0  0  0  0  0  0
   -1.0223   -1.0877   30.1941 C   0  0  0  0  0  0  0  0  0  0  0  0
   -0.2879    0.0654   30.3454 C   0  0  0  0  0  0  0  0  0  0  0  0
   -0.3142    0.7495   29.1162 C   0  0  0  0  0  0  0  0  0  0  0  0
   -1.0414   -0.0150   28.2395 C   0  0  0  0  0  0  0  0  0  0  0  0
   -1.4468   -1.1475   28.8911 N   0  0  0  0  0  0  0  0  0  0  0  0
   -0.6065   -2.2096   32.3442 O   0  0  0  0  0  0  0  0  0  0  0  0
    3.2813   -4.2734   33.8634 C   0  0  0  0  0  0  0  0  0  0  0  0
    4.1887   -3.3681   34.4121 C   0  0  0  0  0  0  0  0  0  0  0  0
    5.0022   -3.6284   35.4817 O   0  0  0  0  0  0  0  0  0  0  0  0
    5.1674   -4.9887   35.8583 C   0  0  0  0  0  0  0  0  0  0  0  0
    6.8694   -2.2178   34.0469 H   0  0  0  0  0  0  0  0  0  0  0  0
    6.3844   -1.0928   32.7313 H   0  0  0  0  0  0  0  0  0  0  0  0
    7.0370   -0.4674   34.2545 H   0  0  0  0  0  0  0  0  0  0  0  0
    3.5570   -0.7120   32.3539 H   0  0  0  0  0  0  0  0  0  0  0  0
    1.9946   -2.3406   31.3485 H   0  0  0  0  0  0  0  0  0  0  0  0
    2.6291   -5.1017   30.3110 H   0  0  0  0  0  0  0  0  0  0  0  0
    1.2235   -6.8385   29.3967 H   0  0  0  0  0  0  0  0  0  0  0  0
   -1.9878   -8.1475   34.6189 H   0  0  0  0  0  0  0  0  0  0  0  0
   -1.5153   -6.5094   34.8193 H   0  0  0  0  0  0  0  0  0  0  0  0
    0.1992    0.3949   31.2545 H   0  0  0  0  0  0  0  0  0  0  0  0
    0.1417    1.7045   28.8857 H   0  0  0  0  0  0  0  0  0  0  0  0
   -1.3031    0.1363   27.1994 H   0  0  0  0  0  0  0  0  0  0  0  0
   -1.9776   -1.9051   28.4698 H   0  0  0  0  0  0  0  0  0  0  0  0
    3.1717   -5.2683   34.2824 H   0  0  0  0  0  0  0  0  0  0  0  0
    5.4852   -5.6037   35.0094 H   0  0  0  0  0  0  0  0  0  0  0  0
    5.9559   -5.0330   36.6156 H   0  0  0  0  0  0  0  0  0  0  0  0
    4.2507   -5.3821   36.3092 H   0  0  0  0  0  0  0  0  0  0  0  0
  1  2  1  0
  2  3  1  0
  3  4  2  0
  4  5  1  0
  5  6  2  0
  6  7  1  0
  7  8  1  0
  8  9  2  0
  9 10  1  0
 10 11  2  0
 11 12  1  0
 12 13  2  0
 13 14  1  0
 13 15  1  0
 15 16  1  0
 16 17  1  0
 17 18  1  0
 18 19  2  0
 19 20  1  0
 20 21  2  0
 21 22  1  0
 22 23  2  0
 23 24  1  0
 24 25  2  0
 25 26  1  0
 21 27  1  0
  6 28  1  0
 28 29  2  0
 29 30  1  0
 30 31  1  0
 29  3  1  0
 16  7  2  0
 27 18  1  0
 15 10  1  0
 26 22  1  0
  1 32  1  0
  1 33  1  0
  1 34  1  0
  4 35  1  0
  5 36  1  0
  8 37  1  0
  9 38  1  0
 14 39  1  0
 14 40  1  0
 23 41  1  0
 24 42  1  0
 25 43  1  0
 26 44  1  0
 28 45  1  0
 31 46  1  0
 31 47  1  0
 31 48  1  0
M  END
>  <Energy>  (1022) 
95.164305491527145

>  <compound_id>  (1022) 
3820

>  <target_id>  (1022) 
1

>  <reference_id>  (1022) 
132

>  <inspiration_ids>  (1022) 
[132, 186]

>  <energy_score>  (1022) 
-48.2957016075452

>  <distance_score>  (1022) 
1.548156995771122

>  <path>  (1022) 
/opt/xchem-fragalysis-2/maxwin/BulkDock/SCRATCH/505734/C3820-P132/C3820-P132.minimised.mol

>  <scratch_subdir>  (1022) 
/opt/xchem-fragalysis-2/maxwin/BulkDock/SCRATCH/505734/C3820-P132

>  <fragmenstein_runtime>  (1022) 
2.581631898880005

>  <fragmenstein_outcome>  (1022) 
too moved

>  <fragmenstein_mode>  (1022) 
expansion

>  <fragmenstein_error>  (1022) 


$$$$
C3820-P186
     RDKit          3D

 48 52  0  0  0  0  0  0  0  0999 V2000
    6.3380   -1.2585   33.8031 C   0  0  0  0  0  0  0  0  0  0  0  0
    5.0439   -1.1597   34.3966 O   0  0  0  0  0  0  0  0  0  0  0  0
    4.2124   -2.1197   33.8781 C   0  0  0  0  0  0  0  0  0  0  0  0
    3.3758   -1.7508   32.8228 C   0  0  0  0  0  0  0  0  0  0  0  0
    2.4911   -2.6807   32.2824 C   0  0  0  0  0  0  0  0  0  0  0  0
    2.4183   -3.9673   32.8249 C   0  0  0  0  0  0  0  0  0  0  0  0
    1.4988   -4.9837   32.2686 C   0  0  0  0  0  0  0  0  0  0  0  0
    1.6779   -5.4577   30.9007 C   0  0  0  0  0  0  0  0  0  0  0  0
    0.8712   -6.3778   30.3530 C   0  0  0  0  0  0  0  0  0  0  0  0
   -0.1230   -7.0081   31.1324 C   0  0  0  0  0  0  0  0  0  0  0  0
   -0.9603   -7.9852   30.8707 N   0  0  0  0  0  0  0  0  0  0  0  0
   -1.6109   -8.2865   32.0375 N   0  0  0  0  0  0  0  0  0  0  0  0
   -1.1827   -7.4769   32.9832 C   0  0  0  0  0  0  0  0  0  0  0  0
   -1.4571   -7.5905   34.3056 N   0  0  0  0  0  0  0  0  0  0  0  0
   -0.2856   -6.5660   32.4376 N   0  0  0  0  0  0  0  0  0  0  0  0
    0.4390   -5.4760   32.9688 C   0  0  0  0  0  0  0  0  0  0  0  0
   -0.2950   -4.5163   34.2445 S   0  0  0  0  0  0  0  0  0  0  0  0
   -1.1493   -3.5503   33.0342 C   0  0  0  0  0  0  0  0  0  0  0  0
   -1.9668   -4.0931   32.1549 N   0  0  0  0  0  0  0  0  0  0  0  0
   -2.1451   -3.1885   31.1511 N   0  0  0  0  0  0  0  0  0  0  0  0
   -1.3951   -2.1524   31.4520 C   0  0  0  0  0  0  0  0  0  0  0  0
   -1.0991   -1.1176   30.5335 C   0  0  0  0  0  0  0  0  0  0  0  0
   -0.5155    0.1054   30.7607 C   0  0  0  0  0  0  0  0  0  0  0  0
   -0.2596    0.6854   29.5052 C   0  0  0  0  0  0  0  0  0  0  0  0
   -0.6837   -0.2093   28.5566 C   0  0  0  0  0  0  0  0  0  0  0  0
   -1.2753   -1.2647   29.1839 N   0  0  0  0  0  0  0  0  0  0  0  0
   -0.7854   -2.2828   32.6735 O   0  0  0  0  0  0  0  0  0  0  0  0
    3.2604   -4.3265   33.8944 C   0  0  0  0  0  0  0  0  0  0  0  0
    4.1635   -3.4072   34.4293 C   0  0  0  0  0  0  0  0  0  0  0  0
    5.0100   -3.6604   35.4749 O   0  0  0  0  0  0  0  0  0  0  0  0
    5.1938   -5.0173   35.8535 C   0  0  0  0  0  0  0  0  0  0  0  0
    6.8161   -2.2154   34.0378 H   0  0  0  0  0  0  0  0  0  0  0  0
    6.2875   -1.1154   32.7178 H   0  0  0  0  0  0  0  0  0  0  0  0
    6.9590   -0.4601   34.2202 H   0  0  0  0  0  0  0  0  0  0  0  0
    3.4180   -0.7408   32.4239 H   0  0  0  0  0  0  0  0  0  0  0  0
    1.8562   -2.3861   31.4501 H   0  0  0  0  0  0  0  0  0  0  0  0
    2.4709   -5.0132   30.3025 H   0  0  0  0  0  0  0  0  0  0  0  0
    1.0442   -6.7057   29.3421 H   0  0  0  0  0  0  0  0  0  0  0  0
   -1.6638   -8.5586   34.5802 H   0  0  0  0  0  0  0  0  0  0  0  0
   -0.8560   -7.1270   34.9801 H   0  0  0  0  0  0  0  0  0  0  0  0
   -0.2480    0.5143   31.7270 H   0  0  0  0  0  0  0  0  0  0  0  0
    0.2289    1.6310   29.3016 H   0  0  0  0  0  0  0  0  0  0  0  0
   -0.6071   -0.1950   27.4837 H   0  0  0  0  0  0  0  0  0  0  0  0
   -1.6714   -2.0820   28.7273 H   0  0  0  0  0  0  0  0  0  0  0  0
    3.1881   -5.3295   34.3009 H   0  0  0  0  0  0  0  0  0  0  0  0
    5.5020   -5.6323   35.0011 H   0  0  0  0  0  0  0  0  0  0  0  0
    5.9961   -5.0519   36.5967 H   0  0  0  0  0  0  0  0  0  0  0  0
    4.2889   -5.4173   36.3220 H   0  0  0  0  0  0  0  0  0  0  0  0
  1  2  1  0
  2  3  1  0
  3  4  2  0
  4  5  1  0
  5  6  2  0
  6  7  1  0
  7  8  1  0
  8  9  2  0
  9 10  1  0
 10 11  2  0
 11 12  1  0
 12 13  2  0
 13 14  1  0
 13 15  1  0
 15 16  1  0
 16 17  1  0
 17 18  1  0
 18 19  2  0
 19 20  1  0
 20 21  2  0
 21 22  1  0
 22 23  2  0
 23 24  1  0
 24 25  2  0
 25 26  1  0
 21 27  1  0
  6 28  1  0
 28 29  2  0
 29 30  1  0
 30 31  1  0
 29  3  1  0
 16  7  2  0
 27 18  1  0
 15 10  1  0
 26 22  1  0
  1 32  1  0
  1 33  1  0
  1 34  1  0
  4 35  1  0
  5 36  1  0
  8 37  1  0
  9 38  1  0
 14 39  1  0
 14 40  1  0
 23 41  1  0
 24 42  1  0
 25 43  1  0
 26 44  1  0
 28 45  1  0
 31 46  1  0
 31 47  1  0
 31 48  1  0
M  END
>  <Energy>  (1023) 
98.388497959675021

>  <compound_id>  (1023) 
3820

>  <target_id>  (1023) 
1

>  <reference_id>  (1023) 
186

>  <inspiration_ids>  (1023) 
[132, 186]

>  <energy_score>  (1023) 
-45.07150913939961

>  <distance_score>  (1023) 
1.5029934733144

>  <path>  (1023) 
/opt/xchem-fragalysis-2/maxwin/BulkDock/SCRATCH/505734/C3820-P186/C3820-P186.minimised.mol

>  <scratch_subdir>  (1023) 
/opt/xchem-fragalysis-2/maxwin/BulkDock/SCRATCH/505734/C3820-P186

>  <fragmenstein_runtime>  (1023) 
2.9612598419189453

>  <fragmenstein_outcome>  (1023) 
too moved

>  <fragmenstein_mode>  (1023) 
expansion

>  <fragmenstein_error>  (1023) 


$$$$
C3821-P132
     RDKit          3D

 52 56  0  0  0  0  0  0  0  0999 V2000
    6.4686   -1.3157   33.8403 C   0  0  0  0  0  0  0  0  0  0  0  0
    5.1236   -1.1521   34.2859 O   0  0  0  0  0  0  0  0  0  0  0  0
    4.3226   -2.1153   33.7295 C   0  0  0  0  0  0  0  0  0  0  0  0
    3.6970   -1.8290   32.5140 C   0  0  0  0  0  0  0  0  0  0  0  0
    2.8452   -2.7671   31.9353 C   0  0  0  0  0  0  0  0  0  0  0  0
    2.5621   -3.9588   32.6107 C   0  0  0  0  0  0  0  0  0  0  0  0
    1.6433   -4.9670   32.0470 C   0  0  0  0  0  0  0  0  0  0  0  0
    1.8849   -5.5790   30.7512 C   0  0  0  0  0  0  0  0  0  0  0  0
    1.0697   -6.5167   30.2449 C   0  0  0  0  0  0  0  0  0  0  0  0
    0.0078   -7.0360   31.0178 C   0  0  0  0  0  0  0  0  0  0  0  0
   -0.8522   -8.0115   30.8219 N   0  0  0  0  0  0  0  0  0  0  0  0
   -1.5303   -8.2016   32.0019 N   0  0  0  0  0  0  0  0  0  0  0  0
   -1.1061   -7.3097   32.8708 C   0  0  0  0  0  0  0  0  0  0  0  0
   -1.3413   -7.3015   34.2101 N   0  0  0  0  0  0  0  0  0  0  0  0
   -0.2000   -6.4600   32.2570 N   0  0  0  0  0  0  0  0  0  0  0  0
    0.5077   -5.3184   32.7111 C   0  0  0  0  0  0  0  0  0  0  0  0
   -0.1711   -4.3976   33.5462 N   0  0  0  0  0  0  0  0  0  0  0  0
   -0.9248   -3.5384   32.7855 C   0  0  0  0  0  0  0  0  0  0  0  0
   -2.0874   -3.7793   32.2304 N   0  0  0  0  0  0  0  0  0  0  0  0
   -2.2603   -2.8878   31.2116 N   0  0  0  0  0  0  0  0  0  0  0  0
   -1.2282   -2.0668   31.1979 C   0  0  0  0  0  0  0  0  0  0  0  0
   -0.9620   -1.0381   30.2048 C   0  0  0  0  0  0  0  0  0  0  0  0
   -1.3791   -1.2456   28.8849 C   0  0  0  0  0  0  0  0  0  0  0  0
   -1.2109   -0.2535   27.9206 C   0  0  0  0  0  0  0  0  0  0  0  0
   -0.5891    0.9439   28.2489 C   0  0  0  0  0  0  0  0  0  0  0  0
   -0.1392    1.1471   29.5482 C   0  0  0  0  0  0  0  0  0  0  0  0
   -0.3304    0.1671   30.5279 C   0  0  0  0  0  0  0  0  0  0  0  0
   -0.4116   -2.3921   32.2501 N   0  0  0  0  0  0  0  0  0  0  0  0
    3.1985   -4.2361   33.8353 C   0  0  0  0  0  0  0  0  0  0  0  0
    4.1009   -3.3291   34.3893 C   0  0  0  0  0  0  0  0  0  0  0  0
    4.7706   -3.5395   35.5651 O   0  0  0  0  0  0  0  0  0  0  0  0
    5.1034   -4.8952   35.8484 C   0  0  0  0  0  0  0  0  0  0  0  0
    6.8709   -2.2930   34.1292 H   0  0  0  0  0  0  0  0  0  0  0  0
    6.5455   -1.1788   32.7560 H   0  0  0  0  0  0  0  0  0  0  0  0
    7.0772   -0.5445   34.3219 H   0  0  0  0  0  0  0  0  0  0  0  0
    3.8879   -0.8817   32.0165 H   0  0  0  0  0  0  0  0  0  0  0  0
    2.3920   -2.5510   30.9696 H   0  0  0  0  0  0  0  0  0  0  0  0
    2.7427   -5.2419   30.1744 H   0  0  0  0  0  0  0  0  0  0  0  0
    1.3204   -6.9717   29.3019 H   0  0  0  0  0  0  0  0  0  0  0  0
   -1.7140   -8.2170   34.4958 H   0  0  0  0  0  0  0  0  0  0  0  0
   -2.0235   -6.6052   34.4990 H   0  0  0  0  0  0  0  0  0  0  0  0
   -0.8103   -4.9431   34.1308 H   0  0  0  0  0  0  0  0  0  0  0  0
   -1.8684   -2.1750   28.5942 H   0  0  0  0  0  0  0  0  0  0  0  0
   -1.5869   -0.4168   26.9143 H   0  0  0  0  0  0  0  0  0  0  0  0
   -0.4727    1.7205   27.4978 H   0  0  0  0  0  0  0  0  0  0  0  0
    0.3416    2.0885   29.8051 H   0  0  0  0  0  0  0  0  0  0  0  0
   -0.0020    0.3752   31.5422 H   0  0  0  0  0  0  0  0  0  0  0  0
    0.4797   -1.9848   32.4760 H   0  0  0  0  0  0  0  0  0  0  0  0
    2.9693   -5.1642   34.3503 H   0  0  0  0  0  0  0  0  0  0  0  0
    5.5238   -5.4020   34.9727 H   0  0  0  0  0  0  0  0  0  0  0  0
    4.2315   -5.4341   36.2320 H   0  0  0  0  0  0  0  0  0  0  0  0
    5.8662   -4.8945   36.6329 H   0  0  0  0  0  0  0  0  0  0  0  0
  1  2  1  0
  2  3  1  0
  3  4  2  0
  4  5  1  0
  5  6  2  0
  6  7  1  0
  7  8  1  0
  8  9  2  0
  9 10  1  0
 10 11  2  0
 11 12  1  0
 12 13  2  0
 13 14  1  0
 13 15  1  0
 15 16  1  0
 16 17  1  0
 17 18  1  0
 18 19  2  0
 19 20  1  0
 20 21  2  0
 21 22  1  0
 22 23  2  0
 23 24  1  0
 24 25  2  0
 25 26  1  0
 26 27  2  0
 21 28  1  0
  6 29  1  0
 29 30  2  0
 30 31  1  0
 31 32  1  0
 30  3  1  0
 16  7  2  0
 28 18  1  0
 15 10  1  0
 27 22  1  0
  1 33  1  0
  1 34  1  0
  1 35  1  0
  4 36  1  0
  5 37  1  0
  8 38  1  0
  9 39  1  0
 14 40  1  0
 14 41  1  0
 17 42  1  0
 23 43  1  0
 24 44  1  0
 25 45  1  0
 26 46  1  0
 27 47  1  0
 28 48  1  0
 29 49  1  0
 32 50  1  0
 32 51  1  0
 32 52  1  0
M  END
>  <Energy>  (1024) 
127.81888069448328

>  <compound_id>  (1024) 
3821

>  <target_id>  (1024) 
1

>  <reference_id>  (1024) 
132

>  <inspiration_ids>  (1024) 
[132, 187]

>  <energy_score>  (1024) 
-31.281771938981876

>  <distance_score>  (1024) 
0.8858298091385614

>  <path>  (1024) 
/opt/xchem-fragalysis-2/maxwin/BulkDock/SCRATCH/505734/C3821-P132/C3821-P132.minimised.mol

>  <scratch_subdir>  (1024) 
/opt/xchem-fragalysis-2/maxwin/BulkDock/SCRATCH/505734/C3821-P132

>  <fragmenstein_runtime>  (1024) 
7.89731240272522

>  <fragmenstein_outcome>  (1024) 
acceptable

>  <fragmenstein_mode>  (1024) 
expansion

>  <fragmenstein_error>  (1024) 


$$$$
C3821-P187
     RDKit          3D

 52 56  0  0  0  0  0  0  0  0999 V2000
    6.4760   -1.3058   33.8396 C   0  0  0  0  0  0  0  0  0  0  0  0
    5.1343   -1.1471   34.2966 O   0  0  0  0  0  0  0  0  0  0  0  0
    4.3292   -2.1027   33.7331 C   0  0  0  0  0  0  0  0  0  0  0  0
    3.7038   -1.8049   32.5202 C   0  0  0  0  0  0  0  0  0  0  0  0
    2.8498   -2.7361   31.9341 C   0  0  0  0  0  0  0  0  0  0  0  0
    2.5643   -3.9329   32.5993 C   0  0  0  0  0  0  0  0  0  0  0  0
    1.6447   -4.9357   32.0268 C   0  0  0  0  0  0  0  0  0  0  0  0
    1.8609   -5.5109   30.7096 C   0  0  0  0  0  0  0  0  0  0  0  0
    1.0416   -6.4418   30.1973 C   0  0  0  0  0  0  0  0  0  0  0  0
    0.0068   -6.9959   30.9834 C   0  0  0  0  0  0  0  0  0  0  0  0
   -0.8468   -7.9762   30.7845 N   0  0  0  0  0  0  0  0  0  0  0  0
   -1.4919   -8.2030   31.9775 N   0  0  0  0  0  0  0  0  0  0  0  0
   -1.0511   -7.3320   32.8596 C   0  0  0  0  0  0  0  0  0  0  0  0
   -1.2211   -7.3714   34.2085 N   0  0  0  0  0  0  0  0  0  0  0  0
   -0.1787   -6.4518   32.2401 N   0  0  0  0  0  0  0  0  0  0  0  0
    0.5212   -5.3082   32.7000 C   0  0  0  0  0  0  0  0  0  0  0  0
   -0.1689   -4.3924   33.5326 N   0  0  0  0  0  0  0  0  0  0  0  0
   -0.9216   -3.5329   32.7685 C   0  0  0  0  0  0  0  0  0  0  0  0
   -2.0834   -3.7779   32.2153 N   0  0  0  0  0  0  0  0  0  0  0  0
   -2.2775   -2.8740   31.2138 N   0  0  0  0  0  0  0  0  0  0  0  0
   -1.2481   -2.0507   31.1916 C   0  0  0  0  0  0  0  0  0  0  0  0
   -1.0086   -1.0169   30.1962 C   0  0  0  0  0  0  0  0  0  0  0  0
   -1.5136   -1.1978   28.9021 C   0  0  0  0  0  0  0  0  0  0  0  0
   -1.3665   -0.2085   27.9316 C   0  0  0  0  0  0  0  0  0  0  0  0
   -0.6864    0.9648   28.2300 C   0  0  0  0  0  0  0  0  0  0  0  0
   -0.1547    1.1443   29.5027 C   0  0  0  0  0  0  0  0  0  0  0  0
   -0.3184    0.1635   30.4872 C   0  0  0  0  0  0  0  0  0  0  0  0
   -0.4166   -2.3824   32.2316 N   0  0  0  0  0  0  0  0  0  0  0  0
    3.1995   -4.2209   33.8224 C   0  0  0  0  0  0  0  0  0  0  0  0
    4.1041   -3.3207   34.3840 C   0  0  0  0  0  0  0  0  0  0  0  0
    4.7761   -3.5407   35.5569 O   0  0  0  0  0  0  0  0  0  0  0  0
    5.0839   -4.9005   35.8458 C   0  0  0  0  0  0  0  0  0  0  0  0
    6.8779   -2.2889   34.1085 H   0  0  0  0  0  0  0  0  0  0  0  0
    6.5464   -1.1498   32.7575 H   0  0  0  0  0  0  0  0  0  0  0  0
    7.0895   -0.5447   34.3309 H   0  0  0  0  0  0  0  0  0  0  0  0
    3.8967   -0.8539   32.0306 H   0  0  0  0  0  0  0  0  0  0  0  0
    2.3970   -2.5106   30.9705 H   0  0  0  0  0  0  0  0  0  0  0  0
    2.6974   -5.1459   30.1189 H   0  0  0  0  0  0  0  0  0  0  0  0
    1.2707   -6.8645   29.2346 H   0  0  0  0  0  0  0  0  0  0  0  0
   -1.4623   -8.3336   34.4996 H   0  0  0  0  0  0  0  0  0  0  0  0
   -1.9927   -6.7991   34.5354 H   0  0  0  0  0  0  0  0  0  0  0  0
   -0.8135   -4.9455   34.1075 H   0  0  0  0  0  0  0  0  0  0  0  0
   -2.0479   -2.1090   28.6356 H   0  0  0  0  0  0  0  0  0  0  0  0
   -1.7993   -0.3576   26.9453 H   0  0  0  0  0  0  0  0  0  0  0  0
   -0.5872    1.7417   27.4767 H   0  0  0  0  0  0  0  0  0  0  0  0
    0.3677    2.0693   29.7371 H   0  0  0  0  0  0  0  0  0  0  0  0
    0.0779    0.3536   31.4804 H   0  0  0  0  0  0  0  0  0  0  0  0
    0.4730   -1.9704   32.4547 H   0  0  0  0  0  0  0  0  0  0  0  0
    2.9671   -5.1525   34.3295 H   0  0  0  0  0  0  0  0  0  0  0  0
    5.4976   -5.4176   34.9729 H   0  0  0  0  0  0  0  0  0  0  0  0
    4.2018   -5.4228   36.2291 H   0  0  0  0  0  0  0  0  0  0  0  0
    5.8447   -4.9107   36.6322 H   0  0  0  0  0  0  0  0  0  0  0  0
  1  2  1  0
  2  3  1  0
  3  4  2  0
  4  5  1  0
  5  6  2  0
  6  7  1  0
  7  8  1  0
  8  9  2  0
  9 10  1  0
 10 11  2  0
 11 12  1  0
 12 13  2  0
 13 14  1  0
 13 15  1  0
 15 16  1  0
 16 17  1  0
 17 18  1  0
 18 19  2  0
 19 20  1  0
 20 21  2  0
 21 22  1  0
 22 23  2  0
 23 24  1  0
 24 25  2  0
 25 26  1  0
 26 27  2  0
 21 28  1  0
  6 29  1  0
 29 30  2  0
 30 31  1  0
 31 32  1  0
 30  3  1  0
 16  7  2  0
 28 18  1  0
 15 10  1  0
 27 22  1  0
  1 33  1  0
  1 34  1  0
  1 35  1  0
  4 36  1  0
  5 37  1  0
  8 38  1  0
  9 39  1  0
 14 40  1  0
 14 41  1  0
 17 42  1  0
 23 43  1  0
 24 44  1  0
 25 45  1  0
 26 46  1  0
 27 47  1  0
 28 48  1  0
 29 49  1  0
 32 50  1  0
 32 51  1  0
 32 52  1  0
M  END
>  <Energy>  (1025) 
129.76464393618866

>  <compound_id>  (1025) 
3821

>  <target_id>  (1025) 
1

>  <reference_id>  (1025) 
187

>  <inspiration_ids>  (1025) 
[132, 187]

>  <energy_score>  (1025) 
-29.33600869727735

>  <distance_score>  (1025) 
0.8851515996204088

>  <path>  (1025) 
/opt/xchem-fragalysis-2/maxwin/BulkDock/SCRATCH/505734/C3821-P187/C3821-P187.minimised.mol

>  <scratch_subdir>  (1025) 
/opt/xchem-fragalysis-2/maxwin/BulkDock/SCRATCH/505734/C3821-P187

>  <fragmenstein_runtime>  (1025) 
7.954917907714844

>  <fragmenstein_outcome>  (1025) 
acceptable

>  <fragmenstein_mode>  (1025) 
expansion

>  <fragmenstein_error>  (1025) 


$$$$
C3822-P132
     RDKit          3D

 61 65  0  0  0  0  0  0  0  0999 V2000
    6.2471   -1.0438   34.3666 C   0  0  0  0  0  0  0  0  0  0  0  0
    5.3674   -2.0254   34.9020 O   0  0  0  0  0  0  0  0  0  0  0  0
    4.5080   -2.6396   34.0339 C   0  0  0  0  0  0  0  0  0  0  0  0
    4.3930   -2.3105   32.6951 C   0  0  0  0  0  0  0  0  0  0  0  0
    3.4893   -2.9947   31.8867 C   0  0  0  0  0  0  0  0  0  0  0  0
    2.5905   -3.9566   32.3890 C   0  0  0  0  0  0  0  0  0  0  0  0
    1.6028   -4.5978   31.4213 C   0  0  0  0  0  0  0  0  0  0  0  0
    1.8887   -6.0932   31.2291 C   0  0  0  0  0  0  0  0  0  0  0  0
    0.7347   -6.9119   30.6183 C   0  0  0  0  0  0  0  0  0  0  0  0
   -0.4235   -6.7113   31.4855 C   0  0  0  0  0  0  0  0  0  0  0  0
   -1.1608   -7.6061   32.0832 N   0  0  0  0  0  0  0  0  0  0  0  0
   -1.5042   -7.0407   33.2808 N   0  0  0  0  0  0  0  0  0  0  0  0
   -1.0115   -5.8178   33.3213 C   0  0  0  0  0  0  0  0  0  0  0  0
   -0.8581   -5.0579   34.4086 N   0  0  0  0  0  0  0  0  0  0  0  0
   -0.5964   -5.4731   32.0713 N   0  0  0  0  0  0  0  0  0  0  0  0
    0.0626   -4.2991   31.4375 C   0  0  0  0  0  0  0  0  0  0  0  0
   -0.4823   -4.2370   29.9476 C   0  0  0  0  0  0  0  0  0  0  0  0
    0.3662   -3.4793   28.9504 C   0  0  0  0  0  0  0  0  0  0  0  0
    0.9572   -2.2090   29.5130 C   0  0  0  0  0  0  0  0  0  0  0  0
    0.2038   -1.5437   30.6693 C   0  0  0  0  0  0  0  0  0  0  0  0
   -0.7521   -0.5630   29.9900 C   0  0  0  0  0  0  0  0  0  0  0  0
   -0.4087    0.7972   30.0668 C   0  0  0  0  0  0  0  0  0  0  0  0
   -0.6850    1.6669   29.0056 C   0  0  0  0  0  0  0  0  0  0  0  0
   -1.3065    1.2014   27.8583 C   0  0  0  0  0  0  0  0  0  0  0  0
   -1.6911   -0.1268   27.7959 C   0  0  0  0  0  0  0  0  0  0  0  0
   -1.5158   -0.9759   28.8883 C   0  0  0  0  0  0  0  0  0  0  0  0
   -0.4077   -2.6219   31.9824 S   0  0  0  0  0  0  0  0  0  0  0  0
    0.3289   -2.3038   33.1873 O   0  0  0  0  0  0  0  0  0  0  0  0
   -1.8586   -2.5719   32.0362 O   0  0  0  0  0  0  0  0  0  0  0  0
    2.7175   -4.2983   33.7373 C   0  0  0  0  0  0  0  0  0  0  0  0
    3.7064   -3.6803   34.5291 C   0  0  0  0  0  0  0  0  0  0  0  0
    3.8504   -4.1294   35.8191 O   0  0  0  0  0  0  0  0  0  0  0  0
    5.0359   -4.9192   35.9435 C   0  0  0  0  0  0  0  0  0  0  0  0
    6.8794   -0.6837   35.1841 H   0  0  0  0  0  0  0  0  0  0  0  0
    6.9056   -1.4738   33.6046 H   0  0  0  0  0  0  0  0  0  0  0  0
    5.6908   -0.1851   33.9767 H   0  0  0  0  0  0  0  0  0  0  0  0
    5.0139   -1.5513   32.2322 H   0  0  0  0  0  0  0  0  0  0  0  0
    3.5469   -2.7586   30.8302 H   0  0  0  0  0  0  0  0  0  0  0  0
    1.9757   -4.2337   30.4702 H   0  0  0  0  0  0  0  0  0  0  0  0
    2.7497   -6.1386   30.5552 H   0  0  0  0  0  0  0  0  0  0  0  0
    2.1621   -6.5350   32.1938 H   0  0  0  0  0  0  0  0  0  0  0  0
    0.9202   -7.9812   30.5600 H   0  0  0  0  0  0  0  0  0  0  0  0
    0.5908   -6.6040   29.5943 H   0  0  0  0  0  0  0  0  0  0  0  0
   -1.5174   -5.2916   35.1509 H   0  0  0  0  0  0  0  0  0  0  0  0
   -0.8361   -4.0420   34.3272 H   0  0  0  0  0  0  0  0  0  0  0  0
   -1.4760   -3.7785   29.9540 H   0  0  0  0  0  0  0  0  0  0  0  0
   -0.6705   -5.2029   29.4958 H   0  0  0  0  0  0  0  0  0  0  0  0
   -0.2599   -3.2532   28.0892 H   0  0  0  0  0  0  0  0  0  0  0  0
    1.1661   -4.1137   28.5501 H   0  0  0  0  0  0  0  0  0  0  0  0
    1.9782   -2.3892   29.8175 H   0  0  0  0  0  0  0  0  0  0  0  0
    1.1227   -1.5094   28.6792 H   0  0  0  0  0  0  0  0  0  0  0  0
    0.9552   -0.9401   31.2003 H   0  0  0  0  0  0  0  0  0  0  0  0
    0.1991    1.1729   30.8887 H   0  0  0  0  0  0  0  0  0  0  0  0
   -0.3635    2.7059   29.0518 H   0  0  0  0  0  0  0  0  0  0  0  0
   -1.4861    1.8665   27.0185 H   0  0  0  0  0  0  0  0  0  0  0  0
   -2.1154   -0.5201   26.8772 H   0  0  0  0  0  0  0  0  0  0  0  0
   -1.8471   -2.0000   28.7571 H   0  0  0  0  0  0  0  0  0  0  0  0
    2.0794   -5.0523   34.1929 H   0  0  0  0  0  0  0  0  0  0  0  0
    5.9322   -4.2919   35.9565 H   0  0  0  0  0  0  0  0  0  0  0  0
    4.9835   -5.4465   36.9009 H   0  0  0  0  0  0  0  0  0  0  0  0
    5.1067   -5.6713   35.1491 H   0  0  0  0  0  0  0  0  0  0  0  0
  1  2  1  0
  2  3  1  0
  3  4  2  0
  4  5  1  0
  5  6  2  0
  6  7  1  0
  7  8  1  0
  8  9  1  0
  9 10  1  0
 10 11  2  0
 11 12  1  0
 12 13  2  0
 13 14  1  0
 13 15  1  0
 15 16  1  0
 16 17  1  0
 17 18  1  0
 18 19  1  0
 19 20  1  0
 20 21  1  0
 21 22  2  0
 22 23  1  0
 23 24  2  0
 24 25  1  0
 25 26  2  0
 20 27  1  0
 27 28  2  0
 27 29  2  0
  6 30  1  0
 30 31  2  0
 31 32  1  0
 32 33  1  0
 31  3  1  0
 16  7  1  0
 26 21  1  0
 15 10  1  0
 27 16  1  0
  1 34  1  0
  1 35  1  0
  1 36  1  0
  4 37  1  0
  5 38  1  0
  7 39  1  0
  8 40  1  0
  8 41  1  0
  9 42  1  0
  9 43  1  0
 14 44  1  0
 14 45  1  0
 17 46  1  0
 17 47  1  0
 18 48  1  0
 18 49  1  0
 19 50  1  0
 19 51  1  0
 20 52  1  0
 22 53  1  0
 23 54  1  0
 24 55  1  0
 25 56  1  0
 26 57  1  0
 30 58  1  0
 33 59  1  0
 33 60  1  0
 33 61  1  0
M  END
>  <Energy>  (1026) 
142.52660195750198

>  <compound_id>  (1026) 
3822

>  <target_id>  (1026) 
1

>  <reference_id>  (1026) 
132

>  <inspiration_ids>  (1026) 
[132, 188]

>  <energy_score>  (1026) 
-18.644819986108814

>  <distance_score>  (1026) 
1.6499560804284408

>  <path>  (1026) 
/opt/xchem-fragalysis-2/maxwin/BulkDock/SCRATCH/505734/C3822-P132/C3822-P132.minimised.mol

>  <scratch_subdir>  (1026) 
/opt/xchem-fragalysis-2/maxwin/BulkDock/SCRATCH/505734/C3822-P132

>  <fragmenstein_runtime>  (1026) 
9.821989297866821

>  <fragmenstein_outcome>  (1026) 
too moved

>  <fragmenstein_mode>  (1026) 
expansion

>  <fragmenstein_error>  (1026) 


$$$$
C3822-P188
     RDKit          3D

 61 65  0  0  0  0  0  0  0  0999 V2000
    6.2038   -1.0248   33.8706 C   0  0  0  0  0  0  0  0  0  0  0  0
    5.6471   -2.2654   34.2845 O   0  0  0  0  0  0  0  0  0  0  0  0
    4.7763   -2.8776   33.4232 C   0  0  0  0  0  0  0  0  0  0  0  0
    4.6164   -2.5156   32.0860 C   0  0  0  0  0  0  0  0  0  0  0  0
    3.6027   -3.0826   31.3056 C   0  0  0  0  0  0  0  0  0  0  0  0
    2.6839   -3.9913   31.8570 C   0  0  0  0  0  0  0  0  0  0  0  0
    1.3614   -4.2035   31.0826 C   0  0  0  0  0  0  0  0  0  0  0  0
    1.4215   -5.4646   30.2136 C   0  0  0  0  0  0  0  0  0  0  0  0
    0.3917   -6.5262   30.5562 C   0  0  0  0  0  0  0  0  0  0  0  0
    0.0370   -6.5070   31.9882 C   0  0  0  0  0  0  0  0  0  0  0  0
   -0.4647   -7.5006   32.6710 N   0  0  0  0  0  0  0  0  0  0  0  0
   -0.8561   -6.9956   33.8765 N   0  0  0  0  0  0  0  0  0  0  0  0
   -0.6008   -5.7059   33.9079 C   0  0  0  0  0  0  0  0  0  0  0  0
   -0.8470   -4.8776   34.9189 N   0  0  0  0  0  0  0  0  0  0  0  0
   -0.0401   -5.3198   32.7302 N   0  0  0  0  0  0  0  0  0  0  0  0
    0.0667   -4.0296   31.9729 C   0  0  0  0  0  0  0  0  0  0  0  0
   -1.3389   -4.0207   31.2021 C   0  0  0  0  0  0  0  0  0  0  0  0
   -2.4183   -3.0223   31.7272 C   0  0  0  0  0  0  0  0  0  0  0  0
   -2.1188   -1.5779   31.4747 C   0  0  0  0  0  0  0  0  0  0  0  0
   -0.6551   -1.4993   31.2032 C   0  0  0  0  0  0  0  0  0  0  0  0
   -0.3441   -0.2896   30.3778 C   0  0  0  0  0  0  0  0  0  0  0  0
    0.2618    0.8745   30.7974 C   0  0  0  0  0  0  0  0  0  0  0  0
    0.3558    1.9461   29.8973 C   0  0  0  0  0  0  0  0  0  0  0  0
   -0.1741    1.8769   28.5996 C   0  0  0  0  0  0  0  0  0  0  0  0
   -0.7752    0.7148   28.1575 C   0  0  0  0  0  0  0  0  0  0  0  0
   -0.8422   -0.3561   29.0315 C   0  0  0  0  0  0  0  0  0  0  0  0
    0.1841   -2.2309   32.6027 S   0  0  0  0  0  0  0  0  0  0  0  0
    1.5081   -1.6617   32.6033 O   0  0  0  0  0  0  0  0  0  0  0  0
   -0.6396   -2.1147   33.7941 O   0  0  0  0  0  0  0  0  0  0  0  0
    2.9392   -4.4606   33.1579 C   0  0  0  0  0  0  0  0  0  0  0  0
    3.9859   -3.9184   33.9286 C   0  0  0  0  0  0  0  0  0  0  0  0
    4.0820   -4.4006   35.2118 O   0  0  0  0  0  0  0  0  0  0  0  0
    5.4031   -4.7908   35.5799 C   0  0  0  0  0  0  0  0  0  0  0  0
    6.7497   -0.6044   34.7208 H   0  0  0  0  0  0  0  0  0  0  0  0
    6.9212   -1.1709   33.0566 H   0  0  0  0  0  0  0  0  0  0  0  0
    5.4244   -0.3083   33.5895 H   0  0  0  0  0  0  0  0  0  0  0  0
    5.2336   -1.7502   31.6270 H   0  0  0  0  0  0  0  0  0  0  0  0
    3.4682   -2.6960   30.2963 H   0  0  0  0  0  0  0  0  0  0  0  0
    1.3353   -3.3841   30.3513 H   0  0  0  0  0  0  0  0  0  0  0  0
    1.2756   -5.1787   29.1643 H   0  0  0  0  0  0  0  0  0  0  0  0
    2.4311   -5.8776   30.2365 H   0  0  0  0  0  0  0  0  0  0  0  0
    0.7184   -7.5207   30.2449 H   0  0  0  0  0  0  0  0  0  0  0  0
   -0.5188   -6.3466   29.9779 H   0  0  0  0  0  0  0  0  0  0  0  0
   -1.4722   -5.2313   35.6378 H   0  0  0  0  0  0  0  0  0  0  0  0
   -0.9863   -3.8746   34.7807 H   0  0  0  0  0  0  0  0  0  0  0  0
   -1.7897   -4.9991   31.3212 H   0  0  0  0  0  0  0  0  0  0  0  0
   -1.1966   -3.9057   30.1199 H   0  0  0  0  0  0  0  0  0  0  0  0
   -2.5537   -3.1716   32.7987 H   0  0  0  0  0  0  0  0  0  0  0  0
   -3.3933   -3.1767   31.2774 H   0  0  0  0  0  0  0  0  0  0  0  0
   -2.6899   -1.1949   30.6359 H   0  0  0  0  0  0  0  0  0  0  0  0
   -2.4206   -0.9561   32.3270 H   0  0  0  0  0  0  0  0  0  0  0  0
   -0.3533   -2.2000   30.4254 H   0  0  0  0  0  0  0  0  0  0  0  0
    0.6593    0.9776   31.8039 H   0  0  0  0  0  0  0  0  0  0  0  0
    0.8304    2.8718   30.2203 H   0  0  0  0  0  0  0  0  0  0  0  0
   -0.1142    2.7434   27.9448 H   0  0  0  0  0  0  0  0  0  0  0  0
   -1.1955    0.6433   27.1584 H   0  0  0  0  0  0  0  0  0  0  0  0
   -1.3336   -1.2572   28.6571 H   0  0  0  0  0  0  0  0  0  0  0  0
    2.3104   -5.2000   33.6437 H   0  0  0  0  0  0  0  0  0  0  0  0
    5.3180   -5.6197   36.2896 H   0  0  0  0  0  0  0  0  0  0  0  0
    5.9947   -5.1428   34.7268 H   0  0  0  0  0  0  0  0  0  0  0  0
    5.9119   -3.9692   36.0922 H   0  0  0  0  0  0  0  0  0  0  0  0
  1  2  1  0
  2  3  1  0
  3  4  2  0
  4  5  1  0
  5  6  2  0
  6  7  1  0
  7  8  1  0
  8  9  1  0
  9 10  1  0
 10 11  2  0
 11 12  1  0
 12 13  2  0
 13 14  1  0
 13 15  1  0
 15 16  1  0
 16 17  1  0
 17 18  1  0
 18 19  1  0
 19 20  1  0
 20 21  1  0
 21 22  2  0
 22 23  1  0
 23 24  2  0
 24 25  1  0
 25 26  2  0
 20 27  1  0
 27 28  2  0
 27 29  2  0
  6 30  1  0
 30 31  2  0
 31 32  1  0
 32 33  1  0
 31  3  1  0
 16  7  1  0
 26 21  1  0
 15 10  1  0
 27 16  1  0
  1 34  1  0
  1 35  1  0
  1 36  1  0
  4 37  1  0
  5 38  1  0
  7 39  1  0
  8 40  1  0
  8 41  1  0
  9 42  1  0
  9 43  1  0
 14 44  1  0
 14 45  1  0
 17 46  1  0
 17 47  1  0
 18 48  1  0
 18 49  1  0
 19 50  1  0
 19 51  1  0
 20 52  1  0
 22 53  1  0
 23 54  1  0
 24 55  1  0
 25 56  1  0
 26 57  1  0
 30 58  1  0
 33 59  1  0
 33 60  1  0
 33 61  1  0
M  END
>  <Energy>  (1027) 
150.95209255111587

>  <compound_id>  (1027) 
3822

>  <target_id>  (1027) 
1

>  <reference_id>  (1027) 
188

>  <inspiration_ids>  (1027) 
[132, 188]

>  <energy_score>  (1027) 
-10.219329392495638

>  <distance_score>  (1027) 
1.687796746083515

>  <path>  (1027) 
/opt/xchem-fragalysis-2/maxwin/BulkDock/SCRATCH/505734/C3822-P188/C3822-P188.minimised.mol

>  <scratch_subdir>  (1027) 
/opt/xchem-fragalysis-2/maxwin/BulkDock/SCRATCH/505734/C3822-P188

>  <fragmenstein_runtime>  (1027) 
8.86400818824768

>  <fragmenstein_outcome>  (1027) 
too moved

>  <fragmenstein_mode>  (1027) 
expansion

>  <fragmenstein_error>  (1027) 


$$$$
C3822-P132
     RDKit          3D

 61 65  0  0  0  0  0  0  0  0999 V2000
    6.2666   -0.7433   33.6065 C   0  0  0  0  0  0  0  0  0  0  0  0
    5.5153   -1.6164   34.4366 O   0  0  0  0  0  0  0  0  0  0  0  0
    4.5710   -2.3926   33.8264 C   0  0  0  0  0  0  0  0  0  0  0  0
    4.0907   -2.2090   32.5299 C   0  0  0  0  0  0  0  0  0  0  0  0
    3.1127   -3.0640   32.0008 C   0  0  0  0  0  0  0  0  0  0  0  0
    2.5419   -4.0765   32.7777 C   0  0  0  0  0  0  0  0  0  0  0  0
    1.4696   -5.0318   32.2827 C   0  0  0  0  0  0  0  0  0  0  0  0
    1.6689   -5.4903   30.8168 C   0  0  0  0  0  0  0  0  0  0  0  0
    0.6257   -6.5119   30.3366 C   0  0  0  0  0  0  0  0  0  0  0  0
   -0.3578   -6.9017   31.3653 C   0  0  0  0  0  0  0  0  0  0  0  0
   -1.0480   -8.0141   31.4001 N   0  0  0  0  0  0  0  0  0  0  0  0
   -1.5330   -8.1271   32.6666 N   0  0  0  0  0  0  0  0  0  0  0  0
   -1.1671   -7.0694   33.3538 C   0  0  0  0  0  0  0  0  0  0  0  0
   -1.2271   -6.9656   34.6941 N   0  0  0  0  0  0  0  0  0  0  0  0
   -0.6199   -6.1488   32.5019 N   0  0  0  0  0  0  0  0  0  0  0  0
   -0.0510   -4.7742   32.6431 C   0  0  0  0  0  0  0  0  0  0  0  0
   -0.2730   -4.0805   34.0207 C   0  0  0  0  0  0  0  0  0  0  0  0
   -0.6366   -2.5767   34.0715 C   0  0  0  0  0  0  0  0  0  0  0  0
   -0.1264   -1.6044   33.0024 C   0  0  0  0  0  0  0  0  0  0  0  0
   -0.1757   -2.0784   31.5495 C   0  0  0  0  0  0  0  0  0  0  0  0
   -0.6417   -1.0964   30.4568 C   0  0  0  0  0  0  0  0  0  0  0  0
   -1.3407   -1.5064   29.3074 C   0  0  0  0  0  0  0  0  0  0  0  0
   -1.5244   -0.6786   28.2035 C   0  0  0  0  0  0  0  0  0  0  0  0
   -1.0687    0.6222   28.2285 C   0  0  0  0  0  0  0  0  0  0  0  0
   -0.4032    1.0783   29.3567 C   0  0  0  0  0  0  0  0  0  0  0  0
   -0.1835    0.2312   30.4543 C   0  0  0  0  0  0  0  0  0  0  0  0
   -0.9268   -3.6827   31.4061 S   0  0  0  0  0  0  0  0  0  0  0  0
   -2.3244   -3.5796   31.7907 O   0  0  0  0  0  0  0  0  0  0  0  0
   -0.6186   -4.1538   30.0744 O   0  0  0  0  0  0  0  0  0  0  0  0
    3.0543   -4.2692   34.0717 C   0  0  0  0  0  0  0  0  0  0  0  0
    4.0646   -3.4538   34.5769 C   0  0  0  0  0  0  0  0  0  0  0  0
    4.5159   -3.7051   35.8468 O   0  0  0  0  0  0  0  0  0  0  0  0
    5.5753   -4.6630   35.8058 C   0  0  0  0  0  0  0  0  0  0  0  0
    7.0580   -0.2988   34.2176 H   0  0  0  0  0  0  0  0  0  0  0  0
    5.6410    0.0722   33.2293 H   0  0  0  0  0  0  0  0  0  0  0  0
    6.7459   -1.2858   32.7846 H   0  0  0  0  0  0  0  0  0  0  0  0
    4.4691   -1.4148   31.8931 H   0  0  0  0  0  0  0  0  0  0  0  0
    2.8287   -2.9099   30.9618 H   0  0  0  0  0  0  0  0  0  0  0  0
    1.7322   -5.9475   32.8451 H   0  0  0  0  0  0  0  0  0  0  0  0
    1.6843   -4.6390   30.1271 H   0  0  0  0  0  0  0  0  0  0  0  0
    2.6701   -5.9114   30.7007 H   0  0  0  0  0  0  0  0  0  0  0  0
    0.0854   -6.1165   29.4860 H   0  0  0  0  0  0  0  0  0  0  0  0
    1.1051   -7.4089   29.9452 H   0  0  0  0  0  0  0  0  0  0  0  0
   -1.5126   -7.8682   35.0891 H   0  0  0  0  0  0  0  0  0  0  0  0
   -1.8778   -6.2647   35.0435 H   0  0  0  0  0  0  0  0  0  0  0  0
    0.5614   -4.2733   34.6973 H   0  0  0  0  0  0  0  0  0  0  0  0
   -1.1110   -4.5463   34.5326 H   0  0  0  0  0  0  0  0  0  0  0  0
   -1.7329   -2.5023   34.0733 H   0  0  0  0  0  0  0  0  0  0  0  0
   -0.3403   -2.1910   35.0560 H   0  0  0  0  0  0  0  0  0  0  0  0
    0.9081   -1.3313   33.2463 H   0  0  0  0  0  0  0  0  0  0  0  0
   -0.6971   -0.6733   33.1130 H   0  0  0  0  0  0  0  0  0  0  0  0
    0.8506   -2.2698   31.2417 H   0  0  0  0  0  0  0  0  0  0  0  0
   -1.7575   -2.4998   29.1713 H   0  0  0  0  0  0  0  0  0  0  0  0
   -2.0254   -1.0667   27.3197 H   0  0  0  0  0  0  0  0  0  0  0  0
   -1.2288    1.2756   27.3758 H   0  0  0  0  0  0  0  0  0  0  0  0
   -0.0276    2.0993   29.3761 H   0  0  0  0  0  0  0  0  0  0  0  0
    0.3969    0.6193   31.2888 H   0  0  0  0  0  0  0  0  0  0  0  0
    2.6852   -5.0720   34.7086 H   0  0  0  0  0  0  0  0  0  0  0  0
    5.2207   -5.6295   35.4310 H   0  0  0  0  0  0  0  0  0  0  0  0
    6.4146   -4.3039   35.1999 H   0  0  0  0  0  0  0  0  0  0  0  0
    5.9343   -4.8082   36.8291 H   0  0  0  0  0  0  0  0  0  0  0  0
  1  2  1  0
  2  3  1  0
  3  4  2  0
  4  5  1  0
  5  6  2  0
  6  7  1  0
  7  8  1  0
  8  9  1  0
  9 10  1  0
 10 11  2  0
 11 12  1  0
 12 13  2  0
 13 14  1  0
 13 15  1  0
 15 16  1  0
 16 17  1  0
 17 18  1  0
 18 19  1  0
 19 20  1  0
 20 21  1  0
 21 22  2  0
 22 23  1  0
 23 24  2  0
 24 25  1  0
 25 26  2  0
 20 27  1  0
 27 28  2  0
 27 29  2  0
  6 30  1  0
 30 31  2  0
 31 32  1  0
 32 33  1  0
 31  3  1  0
 16  7  1  0
 26 21  1  0
 15 10  1  0
 27 16  1  0
  1 34  1  0
  1 35  1  0
  1 36  1  0
  4 37  1  0
  5 38  1  0
  7 39  1  0
  8 40  1  0
  8 41  1  0
  9 42  1  0
  9 43  1  0
 14 44  1  0
 14 45  1  0
 17 46  1  0
 17 47  1  0
 18 48  1  0
 18 49  1  0
 19 50  1  0
 19 51  1  0
 20 52  1  0
 22 53  1  0
 23 54  1  0
 24 55  1  0
 25 56  1  0
 26 57  1  0
 30 58  1  0
 33 59  1  0
 33 60  1  0
 33 61  1  0
M  END
>  <Energy>  (1028) 
117.82298591713854

>  <compound_id>  (1028) 
3822

>  <target_id>  (1028) 
1

>  <reference_id>  (1028) 
132

>  <inspiration_ids>  (1028) 
[132, 189]

>  <energy_score>  (1028) 
-43.34843602647078

>  <distance_score>  (1028) 
1.1992294118590234

>  <path>  (1028) 
/opt/xchem-fragalysis-2/maxwin/BulkDock/SCRATCH/505734/C3822-P132/C3822-P132.minimised.mol

>  <scratch_subdir>  (1028) 
/opt/xchem-fragalysis-2/maxwin/BulkDock/SCRATCH/505734/C3822-P132

>  <fragmenstein_runtime>  (1028) 
7.60532283782959

>  <fragmenstein_outcome>  (1028) 
too moved

>  <fragmenstein_mode>  (1028) 
expansion

>  <fragmenstein_error>  (1028) 


$$$$
C3822-P189
     RDKit          3D

 61 65  0  0  0  0  0  0  0  0999 V2000
    6.6082   -1.3107   33.7628 C   0  0  0  0  0  0  0  0  0  0  0  0
    5.2465   -1.1441   34.1500 O   0  0  0  0  0  0  0  0  0  0  0  0
    4.4772   -2.1397   33.6079 C   0  0  0  0  0  0  0  0  0  0  0  0
    3.8397   -1.8868   32.3904 C   0  0  0  0  0  0  0  0  0  0  0  0
    2.9691   -2.8288   31.8438 C   0  0  0  0  0  0  0  0  0  0  0  0
    2.6840   -3.9970   32.5509 C   0  0  0  0  0  0  0  0  0  0  0  0
    1.5860   -4.9557   32.1415 C   0  0  0  0  0  0  0  0  0  0  0  0
    1.7027   -5.4806   30.6962 C   0  0  0  0  0  0  0  0  0  0  0  0
    0.5596   -6.4374   30.3118 C   0  0  0  0  0  0  0  0  0  0  0  0
   -0.3105   -6.7990   31.4535 C   0  0  0  0  0  0  0  0  0  0  0  0
   -0.9355   -7.9353   31.6380 N   0  0  0  0  0  0  0  0  0  0  0  0
   -1.4009   -7.9235   32.9208 N   0  0  0  0  0  0  0  0  0  0  0  0
   -1.0956   -6.7709   33.4719 C   0  0  0  0  0  0  0  0  0  0  0  0
   -1.2794   -6.4410   34.7599 N   0  0  0  0  0  0  0  0  0  0  0  0
   -0.5175   -5.9583   32.5417 N   0  0  0  0  0  0  0  0  0  0  0  0
    0.1027   -4.6033   32.5672 C   0  0  0  0  0  0  0  0  0  0  0  0
    0.0615   -3.7748   33.9083 C   0  0  0  0  0  0  0  0  0  0  0  0
   -1.0683   -2.7429   34.0811 C   0  0  0  0  0  0  0  0  0  0  0  0
   -1.0630   -1.5502   33.0980 C   0  0  0  0  0  0  0  0  0  0  0  0
   -0.5125   -1.8664   31.7125 C   0  0  0  0  0  0  0  0  0  0  0  0
   -0.9846   -0.9685   30.5545 C   0  0  0  0  0  0  0  0  0  0  0  0
   -1.9048   -1.3917   29.5752 C   0  0  0  0  0  0  0  0  0  0  0  0
   -2.1579   -0.6550   28.4188 C   0  0  0  0  0  0  0  0  0  0  0  0
   -1.5515    0.5723   28.2392 C   0  0  0  0  0  0  0  0  0  0  0  0
   -0.6836    1.0505   29.2142 C   0  0  0  0  0  0  0  0  0  0  0  0
   -0.3996    0.2914   30.3597 C   0  0  0  0  0  0  0  0  0  0  0  0
   -0.8110   -3.5788   31.3091 S   0  0  0  0  0  0  0  0  0  0  0  0
   -2.2288   -3.8307   31.5281 O   0  0  0  0  0  0  0  0  0  0  0  0
   -0.2578   -3.7853   29.9878 O   0  0  0  0  0  0  0  0  0  0  0  0
    3.3728   -4.2576   33.7604 C   0  0  0  0  0  0  0  0  0  0  0  0
    4.2775   -3.3412   34.2901 C   0  0  0  0  0  0  0  0  0  0  0  0
    4.9372   -3.5185   35.4754 O   0  0  0  0  0  0  0  0  0  0  0  0
    5.2396   -4.8660   35.8243 C   0  0  0  0  0  0  0  0  0  0  0  0
    7.1858   -0.4957   34.2094 H   0  0  0  0  0  0  0  0  0  0  0  0
    6.7211   -1.2479   32.6748 H   0  0  0  0  0  0  0  0  0  0  0  0
    7.0183   -2.2568   34.1326 H   0  0  0  0  0  0  0  0  0  0  0  0
    4.0200   -0.9469   31.8741 H   0  0  0  0  0  0  0  0  0  0  0  0
    2.4974   -2.6101   30.8877 H   0  0  0  0  0  0  0  0  0  0  0  0
    1.8400   -5.8525   32.7359 H   0  0  0  0  0  0  0  0  0  0  0  0
    1.7941   -4.6769   29.9586 H   0  0  0  0  0  0  0  0  0  0  0  0
    2.6622   -5.9790   30.5789 H   0  0  0  0  0  0  0  0  0  0  0  0
   -0.0751   -5.9885   29.5528 H   0  0  0  0  0  0  0  0  0  0  0  0
    0.9572   -7.3454   29.8533 H   0  0  0  0  0  0  0  0  0  0  0  0
   -1.6618   -7.2218   35.2909 H   0  0  0  0  0  0  0  0  0  0  0  0
   -1.8898   -5.6295   34.9039 H   0  0  0  0  0  0  0  0  0  0  0  0
    0.9573   -3.1577   34.0020 H   0  0  0  0  0  0  0  0  0  0  0  0
    0.1003   -4.4363   34.7769 H   0  0  0  0  0  0  0  0  0  0  0  0
   -2.0289   -3.2402   34.0021 H   0  0  0  0  0  0  0  0  0  0  0  0
   -1.0283   -2.3415   35.1015 H   0  0  0  0  0  0  0  0  0  0  0  0
   -0.4761   -0.7289   33.5290 H   0  0  0  0  0  0  0  0  0  0  0  0
   -2.0897   -1.1685   33.0239 H   0  0  0  0  0  0  0  0  0  0  0  0
    0.5745   -1.7756   31.7423 H   0  0  0  0  0  0  0  0  0  0  0  0
   -2.4279   -2.3436   29.6235 H   0  0  0  0  0  0  0  0  0  0  0  0
   -2.8231   -1.0538   27.6544 H   0  0  0  0  0  0  0  0  0  0  0  0
   -1.7546    1.1557   27.3456 H   0  0  0  0  0  0  0  0  0  0  0  0
   -0.2068    2.0184   29.0740 H   0  0  0  0  0  0  0  0  0  0  0  0
    0.3204    0.6830   31.0754 H   0  0  0  0  0  0  0  0  0  0  0  0
    3.1440   -5.1617   34.3191 H   0  0  0  0  0  0  0  0  0  0  0  0
    4.3547   -5.3670   36.2291 H   0  0  0  0  0  0  0  0  0  0  0  0
    5.6522   -5.4226   34.9755 H   0  0  0  0  0  0  0  0  0  0  0  0
    5.9994   -4.8444   36.6114 H   0  0  0  0  0  0  0  0  0  0  0  0
  1  2  1  0
  2  3  1  0
  3  4  2  0
  4  5  1  0
  5  6  2  0
  6  7  1  0
  7  8  1  0
  8  9  1  0
  9 10  1  0
 10 11  2  0
 11 12  1  0
 12 13  2  0
 13 14  1  0
 13 15  1  0
 15 16  1  0
 16 17  1  0
 17 18  1  0
 18 19  1  0
 19 20  1  0
 20 21  1  0
 21 22  2  0
 22 23  1  0
 23 24  2  0
 24 25  1  0
 25 26  2  0
 20 27  1  0
 27 28  2  0
 27 29  2  0
  6 30  1  0
 30 31  2  0
 31 32  1  0
 32 33  1  0
 31  3  1  0
 16  7  1  0
 26 21  1  0
 15 10  1  0
 27 16  1  0
  1 34  1  0
  1 35  1  0
  1 36  1  0
  4 37  1  0
  5 38  1  0
  7 39  1  0
  8 40  1  0
  8 41  1  0
  9 42  1  0
  9 43  1  0
 14 44  1  0
 14 45  1  0
 17 46  1  0
 17 47  1  0
 18 48  1  0
 18 49  1  0
 19 50  1  0
 19 51  1  0
 20 52  1  0
 22 53  1  0
 23 54  1  0
 24 55  1  0
 25 56  1  0
 26 57  1  0
 30 58  1  0
 33 59  1  0
 33 60  1  0
 33 61  1  0
M  END
>  <Energy>  (1029) 
106.64777285830218

>  <compound_id>  (1029) 
3822

>  <target_id>  (1029) 
1

>  <reference_id>  (1029) 
189

>  <inspiration_ids>  (1029) 
[132, 189]

>  <energy_score>  (1029) 
-54.523649085306374

>  <distance_score>  (1029) 
1.1628555693388445

>  <path>  (1029) 
/opt/xchem-fragalysis-2/maxwin/BulkDock/SCRATCH/505734/C3822-P189/C3822-P189.minimised.mol

>  <scratch_subdir>  (1029) 
/opt/xchem-fragalysis-2/maxwin/BulkDock/SCRATCH/505734/C3822-P189

>  <fragmenstein_runtime>  (1029) 
8.824310064315796

>  <fragmenstein_outcome>  (1029) 
too moved

>  <fragmenstein_mode>  (1029) 
expansion

>  <fragmenstein_error>  (1029) 


$$$$
C3824-P132
     RDKit          3D

 47 50  0  0  0  0  0  0  0  0999 V2000
    6.5228   -0.6497   35.0435 C   0  0  0  0  0  0  0  0  0  0  0  0
    6.4666   -0.8917   33.6460 O   0  0  0  0  0  0  0  0  0  0  0  0
    5.5295   -1.7751   33.1876 C   0  0  0  0  0  0  0  0  0  0  0  0
    5.2952   -1.6541   31.8083 C   0  0  0  0  0  0  0  0  0  0  0  0
    4.3609   -2.4591   31.1556 C   0  0  0  0  0  0  0  0  0  0  0  0
    3.6336   -3.3885   31.8915 C   0  0  0  0  0  0  0  0  0  0  0  0
    2.5781   -4.2182   31.3006 C   0  0  0  0  0  0  0  0  0  0  0  0
    2.7979   -5.2149   30.2506 C   0  0  0  0  0  0  0  0  0  0  0  0
    1.8155   -6.0469   29.8535 C   0  0  0  0  0  0  0  0  0  0  0  0
    0.6032   -6.0705   30.5869 C   0  0  0  0  0  0  0  0  0  0  0  0
   -0.3490   -6.9639   30.7427 N   0  0  0  0  0  0  0  0  0  0  0  0
   -1.1617   -6.5175   31.7665 N   0  0  0  0  0  0  0  0  0  0  0  0
   -0.7217   -5.3412   32.1644 C   0  0  0  0  0  0  0  0  0  0  0  0
   -1.1067   -4.6151   33.2336 N   0  0  0  0  0  0  0  0  0  0  0  0
    0.3552   -4.9689   31.3825 N   0  0  0  0  0  0  0  0  0  0  0  0
    1.2791   -3.9233   31.5672 C   0  0  0  0  0  0  0  0  0  0  0  0
    0.9325   -2.6438   31.1917 N   0  0  0  0  0  0  0  0  0  0  0  0
   -0.2599   -2.1360   30.4530 C   0  0  0  0  0  0  0  0  0  0  0  0
   -1.2209   -2.7010   30.0906 O   0  0  0  0  0  0  0  0  0  0  0  0
    0.1745   -0.7242   30.2200 N   0  0  0  0  0  0  0  0  0  0  0  0
   -0.3740    0.2575   29.4536 C   0  0  0  0  0  0  0  0  0  0  0  0
   -1.3307    0.1140   28.4313 C   0  0  0  0  0  0  0  0  0  0  0  0
   -1.5505    1.2633   27.7895 N   0  0  0  0  0  0  0  0  0  0  0  0
   -0.7653    2.1431   28.4242 N   0  0  0  0  0  0  0  0  0  0  0  0
    0.0149    1.5708   29.3954 C   0  0  0  0  0  0  0  0  0  0  0  0
    3.8789   -3.5343   33.2663 C   0  0  0  0  0  0  0  0  0  0  0  0
    4.8458   -2.7579   33.9106 C   0  0  0  0  0  0  0  0  0  0  0  0
    5.0639   -2.9370   35.2507 O   0  0  0  0  0  0  0  0  0  0  0  0
    5.4836   -4.2668   35.5640 C   0  0  0  0  0  0  0  0  0  0  0  0
    7.0165   -1.4768   35.5623 H   0  0  0  0  0  0  0  0  0  0  0  0
    7.1385    0.2419   35.1992 H   0  0  0  0  0  0  0  0  0  0  0  0
    5.5333   -0.4369   35.4613 H   0  0  0  0  0  0  0  0  0  0  0  0
    5.8535   -0.9130   31.2386 H   0  0  0  0  0  0  0  0  0  0  0  0
    4.2010   -2.3375   30.0869 H   0  0  0  0  0  0  0  0  0  0  0  0
    3.7579   -5.2194   29.7407 H   0  0  0  0  0  0  0  0  0  0  0  0
    1.9736   -6.7550   29.0496 H   0  0  0  0  0  0  0  0  0  0  0  0
   -0.9966   -3.6063   33.2104 H   0  0  0  0  0  0  0  0  0  0  0  0
   -1.9782   -4.8677   33.7069 H   0  0  0  0  0  0  0  0  0  0  0  0
    1.6115   -1.9093   31.2705 H   0  0  0  0  0  0  0  0  0  0  0  0
    1.0082   -0.5434   30.7418 H   0  0  0  0  0  0  0  0  0  0  0  0
   -1.8401   -0.7834   28.0969 H   0  0  0  0  0  0  0  0  0  0  0  0
   -0.8118    3.1171   28.1371 H   0  0  0  0  0  0  0  0  0  0  0  0
    0.7382    2.1574   29.9409 H   0  0  0  0  0  0  0  0  0  0  0  0
    3.3000   -4.2529   33.8429 H   0  0  0  0  0  0  0  0  0  0  0  0
    5.9600   -4.2414   36.5488 H   0  0  0  0  0  0  0  0  0  0  0  0
    6.2181   -4.6438   34.8428 H   0  0  0  0  0  0  0  0  0  0  0  0
    4.6223   -4.9395   35.6251 H   0  0  0  0  0  0  0  0  0  0  0  0
  1  2  1  0
  2  3  1  0
  3  4  2  0
  4  5  1  0
  5  6  2  0
  6  7  1  0
  7  8  1  0
  8  9  2  0
  9 10  1  0
 10 11  2  0
 11 12  1  0
 12 13  2  0
 13 14  1  0
 13 15  1  0
 15 16  1  0
 16 17  1  0
 17 18  1  0
 18 19  2  0
 18 20  1  0
 20 21  1  0
 21 22  1  0
 22 23  2  0
 23 24  1  0
 24 25  1  0
  6 26  1  0
 26 27  2  0
 27 28  1  0
 28 29  1  0
 27  3  1  0
 16  7  2  0
 25 21  2  0
 15 10  1  0
  1 30  1  0
  1 31  1  0
  1 32  1  0
  4 33  1  0
  5 34  1  0
  8 35  1  0
  9 36  1  0
 14 37  1  0
 14 38  1  0
 17 39  1  0
 20 40  1  0
 22 41  1  0
 24 42  1  0
 25 43  1  0
 26 44  1  0
 29 45  1  0
 29 46  1  0
 29 47  1  0
M  END
>  <Energy>  (1030) 
109.13556335845892

>  <compound_id>  (1030) 
3824

>  <target_id>  (1030) 
1

>  <reference_id>  (1030) 
132

>  <inspiration_ids>  (1030) 
[132, 195]

>  <energy_score>  (1030) 
-38.22301818271863

>  <distance_score>  (1030) 
2.062195253069626

>  <path>  (1030) 
/opt/xchem-fragalysis-2/maxwin/BulkDock/SCRATCH/505734/C3824-P132/C3824-P132.minimised.mol

>  <scratch_subdir>  (1030) 
/opt/xchem-fragalysis-2/maxwin/BulkDock/SCRATCH/505734/C3824-P132

>  <fragmenstein_runtime>  (1030) 
7.792970895767212

>  <fragmenstein_outcome>  (1030) 
too moved

>  <fragmenstein_mode>  (1030) 
expansion

>  <fragmenstein_error>  (1030) 


$$$$
C3824-P195
     RDKit          3D

 47 50  0  0  0  0  0  0  0  0999 V2000
    6.7279   -0.2887   33.9999 C   0  0  0  0  0  0  0  0  0  0  0  0
    5.9844   -1.3186   34.6350 O   0  0  0  0  0  0  0  0  0  0  0  0
    5.1299   -2.0499   33.8564 C   0  0  0  0  0  0  0  0  0  0  0  0
    4.9168   -1.8488   32.4894 C   0  0  0  0  0  0  0  0  0  0  0  0
    4.0105   -2.6509   31.7864 C   0  0  0  0  0  0  0  0  0  0  0  0
    3.2929   -3.6522   32.4481 C   0  0  0  0  0  0  0  0  0  0  0  0
    2.3143   -4.5070   31.7546 C   0  0  0  0  0  0  0  0  0  0  0  0
    2.6098   -5.1929   30.4835 C   0  0  0  0  0  0  0  0  0  0  0  0
    1.7030   -5.9826   29.8765 C   0  0  0  0  0  0  0  0  0  0  0  0
    0.4979   -6.2774   30.5621 C   0  0  0  0  0  0  0  0  0  0  0  0
   -0.3660   -7.2656   30.4837 N   0  0  0  0  0  0  0  0  0  0  0  0
   -1.1451   -7.2108   31.6191 N   0  0  0  0  0  0  0  0  0  0  0  0
   -0.7701   -6.1653   32.3277 C   0  0  0  0  0  0  0  0  0  0  0  0
   -1.1036   -5.8816   33.6074 N   0  0  0  0  0  0  0  0  0  0  0  0
    0.1703   -5.4396   31.6164 N   0  0  0  0  0  0  0  0  0  0  0  0
    0.9826   -4.3494   32.0147 C   0  0  0  0  0  0  0  0  0  0  0  0
    0.5909   -3.0884   31.5897 N   0  0  0  0  0  0  0  0  0  0  0  0
   -0.5473   -2.6631   30.7265 C   0  0  0  0  0  0  0  0  0  0  0  0
   -1.4258   -3.2911   30.2716 O   0  0  0  0  0  0  0  0  0  0  0  0
   -0.1840   -1.2270   30.5263 N   0  0  0  0  0  0  0  0  0  0  0  0
   -0.7120   -0.2851   29.6965 C   0  0  0  0  0  0  0  0  0  0  0  0
   -1.6007   -0.4665   28.6195 C   0  0  0  0  0  0  0  0  0  0  0  0
   -1.7865    0.6646   27.9344 N   0  0  0  0  0  0  0  0  0  0  0  0
   -1.0458    1.5667   28.5860 N   0  0  0  0  0  0  0  0  0  0  0  0
   -0.3351    1.0322   29.6281 C   0  0  0  0  0  0  0  0  0  0  0  0
    3.4948   -3.8511   33.8171 C   0  0  0  0  0  0  0  0  0  0  0  0
    4.4251   -3.0738   34.5037 C   0  0  0  0  0  0  0  0  0  0  0  0
    4.5734   -3.3126   35.8468 O   0  0  0  0  0  0  0  0  0  0  0  0
    5.6994   -4.1616   36.0713 C   0  0  0  0  0  0  0  0  0  0  0  0
    6.0661    0.4822   33.5914 H   0  0  0  0  0  0  0  0  0  0  0  0
    7.3594    0.1841   34.7583 H   0  0  0  0  0  0  0  0  0  0  0  0
    7.3870   -0.6961   33.2262 H   0  0  0  0  0  0  0  0  0  0  0  0
    5.4447   -1.0773   31.9377 H   0  0  0  0  0  0  0  0  0  0  0  0
    3.8702   -2.4783   30.7210 H   0  0  0  0  0  0  0  0  0  0  0  0
    3.5679   -5.0048   30.0071 H   0  0  0  0  0  0  0  0  0  0  0  0
    1.9303   -6.4800   28.9419 H   0  0  0  0  0  0  0  0  0  0  0  0
   -1.7446   -6.5602   34.0099 H   0  0  0  0  0  0  0  0  0  0  0  0
   -1.4463   -4.9405   33.8057 H   0  0  0  0  0  0  0  0  0  0  0  0
    1.2079   -2.3108   31.7318 H   0  0  0  0  0  0  0  0  0  0  0  0
    0.5767   -0.9902   31.1302 H   0  0  0  0  0  0  0  0  0  0  0  0
   -2.0839   -1.3752   28.2754 H   0  0  0  0  0  0  0  0  0  0  0  0
   -1.0744    2.5292   28.2613 H   0  0  0  0  0  0  0  0  0  0  0  0
    0.3482    1.6400   30.2010 H   0  0  0  0  0  0  0  0  0  0  0  0
    2.9426   -4.6162   34.3587 H   0  0  0  0  0  0  0  0  0  0  0  0
    5.7528   -4.3686   37.1443 H   0  0  0  0  0  0  0  0  0  0  0  0
    6.6346   -3.6753   35.7747 H   0  0  0  0  0  0  0  0  0  0  0  0
    5.5854   -5.1176   35.5479 H   0  0  0  0  0  0  0  0  0  0  0  0
  1  2  1  0
  2  3  1  0
  3  4  2  0
  4  5  1  0
  5  6  2  0
  6  7  1  0
  7  8  1  0
  8  9  2  0
  9 10  1  0
 10 11  2  0
 11 12  1  0
 12 13  2  0
 13 14  1  0
 13 15  1  0
 15 16  1  0
 16 17  1  0
 17 18  1  0
 18 19  2  0
 18 20  1  0
 20 21  1  0
 21 22  1  0
 22 23  2  0
 23 24  1  0
 24 25  1  0
  6 26  1  0
 26 27  2  0
 27 28  1  0
 28 29  1  0
 27  3  1  0
 16  7  2  0
 25 21  2  0
 15 10  1  0
  1 30  1  0
  1 31  1  0
  1 32  1  0
  4 33  1  0
  5 34  1  0
  8 35  1  0
  9 36  1  0
 14 37  1  0
 14 38  1  0
 17 39  1  0
 20 40  1  0
 22 41  1  0
 24 42  1  0
 25 43  1  0
 26 44  1  0
 29 45  1  0
 29 46  1  0
 29 47  1  0
M  END
>  <Energy>  (1031) 
123.31502658155915

>  <compound_id>  (1031) 
3824

>  <target_id>  (1031) 
1

>  <reference_id>  (1031) 
195

>  <inspiration_ids>  (1031) 
[132, 195]

>  <energy_score>  (1031) 
-24.043554959619485

>  <distance_score>  (1031) 
1.5934066735708046

>  <path>  (1031) 
/opt/xchem-fragalysis-2/maxwin/BulkDock/SCRATCH/505734/C3824-P195/C3824-P195.minimised.mol

>  <scratch_subdir>  (1031) 
/opt/xchem-fragalysis-2/maxwin/BulkDock/SCRATCH/505734/C3824-P195

>  <fragmenstein_runtime>  (1031) 
5.769250154495239

>  <fragmenstein_outcome>  (1031) 
too moved

>  <fragmenstein_mode>  (1031) 
expansion

>  <fragmenstein_error>  (1031) 


$$$$
C3824-P132
     RDKit          3D

 47 50  0  0  0  0  0  0  0  0999 V2000
    6.5837   -0.4587   34.4146 C   0  0  0  0  0  0  0  0  0  0  0  0
    5.8807   -1.6624   34.6911 O   0  0  0  0  0  0  0  0  0  0  0  0
    5.0741   -2.1654   33.7064 C   0  0  0  0  0  0  0  0  0  0  0  0
    4.9735   -1.6147   32.4218 C   0  0  0  0  0  0  0  0  0  0  0  0
    4.0954   -2.1514   31.4743 C   0  0  0  0  0  0  0  0  0  0  0  0
    3.2747   -3.2241   31.8076 C   0  0  0  0  0  0  0  0  0  0  0  0
    2.3558   -3.8208   30.8209 C   0  0  0  0  0  0  0  0  0  0  0  0
    2.8041   -4.8984   29.9306 C   0  0  0  0  0  0  0  0  0  0  0  0
    2.0218   -5.9604   29.6638 C   0  0  0  0  0  0  0  0  0  0  0  0
    0.8090   -6.1162   30.3856 C   0  0  0  0  0  0  0  0  0  0  0  0
   -0.0237   -7.1174   30.5756 N   0  0  0  0  0  0  0  0  0  0  0  0
   -0.9880   -6.6923   31.4708 N   0  0  0  0  0  0  0  0  0  0  0  0
   -0.7451   -5.4337   31.7706 C   0  0  0  0  0  0  0  0  0  0  0  0
   -1.3886   -4.6326   32.6472 N   0  0  0  0  0  0  0  0  0  0  0  0
    0.3517   -5.0012   31.0551 N   0  0  0  0  0  0  0  0  0  0  0  0
    1.0240   -3.7668   31.0850 C   0  0  0  0  0  0  0  0  0  0  0  0
    0.3336   -2.7190   30.5014 N   0  0  0  0  0  0  0  0  0  0  0  0
    0.6740   -1.2618   30.3926 C   0  0  0  0  0  0  0  0  0  0  0  0
    1.5713   -0.6579   30.8495 O   0  0  0  0  0  0  0  0  0  0  0  0
   -0.4038   -0.8244   29.4532 N   0  0  0  0  0  0  0  0  0  0  0  0
   -0.5892    0.3580   28.8028 C   0  0  0  0  0  0  0  0  0  0  0  0
   -1.3448    0.6070   27.6432 C   0  0  0  0  0  0  0  0  0  0  0  0
   -1.2738    1.8839   27.2597 N   0  0  0  0  0  0  0  0  0  0  0  0
   -0.5142    2.4562   28.2098 N   0  0  0  0  0  0  0  0  0  0  0  0
   -0.0157    1.5623   29.1136 C   0  0  0  0  0  0  0  0  0  0  0  0
    3.3866   -3.7934   33.0844 C   0  0  0  0  0  0  0  0  0  0  0  0
    4.2947   -3.2897   34.0211 C   0  0  0  0  0  0  0  0  0  0  0  0
    4.2832   -3.9582   35.2199 O   0  0  0  0  0  0  0  0  0  0  0  0
    5.5673   -4.1906   35.7916 C   0  0  0  0  0  0  0  0  0  0  0  0
    5.8950    0.3593   34.1784 H   0  0  0  0  0  0  0  0  0  0  0  0
    7.1322   -0.1783   35.3192 H   0  0  0  0  0  0  0  0  0  0  0  0
    7.3175   -0.6056   33.6155 H   0  0  0  0  0  0  0  0  0  0  0  0
    5.5590   -0.7521   32.1202 H   0  0  0  0  0  0  0  0  0  0  0  0
    4.0316   -1.6938   30.4891 H   0  0  0  0  0  0  0  0  0  0  0  0
    3.7688   -4.7786   29.4447 H   0  0  0  0  0  0  0  0  0  0  0  0
    2.3346   -6.7230   28.9591 H   0  0  0  0  0  0  0  0  0  0  0  0
   -1.9192   -5.0904   33.3943 H   0  0  0  0  0  0  0  0  0  0  0  0
   -0.8948   -3.8313   33.0382 H   0  0  0  0  0  0  0  0  0  0  0  0
   -0.5521   -2.8884   30.0560 H   0  0  0  0  0  0  0  0  0  0  0  0
   -0.9639   -1.6159   29.1986 H   0  0  0  0  0  0  0  0  0  0  0  0
   -1.9092   -0.0914   27.0396 H   0  0  0  0  0  0  0  0  0  0  0  0
   -0.3701    3.4612   28.1710 H   0  0  0  0  0  0  0  0  0  0  0  0
    0.6573    1.8711   29.9004 H   0  0  0  0  0  0  0  0  0  0  0  0
    2.7793   -4.6520   33.3606 H   0  0  0  0  0  0  0  0  0  0  0  0
    6.3440   -4.3488   35.0349 H   0  0  0  0  0  0  0  0  0  0  0  0
    5.8356   -3.3743   36.4684 H   0  0  0  0  0  0  0  0  0  0  0  0
    5.5011   -5.1039   36.3913 H   0  0  0  0  0  0  0  0  0  0  0  0
  1  2  1  0
  2  3  1  0
  3  4  2  0
  4  5  1  0
  5  6  2  0
  6  7  1  0
  7  8  1  0
  8  9  2  0
  9 10  1  0
 10 11  2  0
 11 12  1  0
 12 13  2  0
 13 14  1  0
 13 15  1  0
 15 16  1  0
 16 17  1  0
 17 18  1  0
 18 19  2  0
 18 20  1  0
 20 21  1  0
 21 22  1  0
 22 23  2  0
 23 24  1  0
 24 25  1  0
  6 26  1  0
 26 27  2  0
 27 28  1  0
 28 29  1  0
 27  3  1  0
 16  7  2  0
 25 21  2  0
 15 10  1  0
  1 30  1  0
  1 31  1  0
  1 32  1  0
  4 33  1  0
  5 34  1  0
  8 35  1  0
  9 36  1  0
 14 37  1  0
 14 38  1  0
 17 39  1  0
 20 40  1  0
 22 41  1  0
 24 42  1  0
 25 43  1  0
 26 44  1  0
 29 45  1  0
 29 46  1  0
 29 47  1  0
M  END
>  <Energy>  (1032) 
120.59801620498438

>  <compound_id>  (1032) 
3824

>  <target_id>  (1032) 
1

>  <reference_id>  (1032) 
132

>  <inspiration_ids>  (1032) 
[132, 196]

>  <energy_score>  (1032) 
-26.76056533619345

>  <distance_score>  (1032) 
2.383739538539756

>  <path>  (1032) 
/opt/xchem-fragalysis-2/maxwin/BulkDock/SCRATCH/505734/C3824-P132/C3824-P132.minimised.mol

>  <scratch_subdir>  (1032) 
/opt/xchem-fragalysis-2/maxwin/BulkDock/SCRATCH/505734/C3824-P132

>  <fragmenstein_runtime>  (1032) 
4.772100925445557

>  <fragmenstein_outcome>  (1032) 
too moved

>  <fragmenstein_mode>  (1032) 
expansion

>  <fragmenstein_error>  (1032) 


$$$$
C3824-P196
     RDKit          3D

 47 50  0  0  0  0  0  0  0  0999 V2000
    6.2617   -0.8910   34.7182 C   0  0  0  0  0  0  0  0  0  0  0  0
    5.6109   -2.0555   35.2109 O   0  0  0  0  0  0  0  0  0  0  0  0
    4.7152   -2.6779   34.3837 C   0  0  0  0  0  0  0  0  0  0  0  0
    4.4679   -2.2836   33.0679 C   0  0  0  0  0  0  0  0  0  0  0  0
    3.5183   -2.9544   32.2939 C   0  0  0  0  0  0  0  0  0  0  0  0
    2.7654   -4.0085   32.8249 C   0  0  0  0  0  0  0  0  0  0  0  0
    1.8031   -4.7471   31.9855 C   0  0  0  0  0  0  0  0  0  0  0  0
    2.1493   -5.1922   30.6182 C   0  0  0  0  0  0  0  0  0  0  0  0
    1.3748   -6.0709   29.9547 C   0  0  0  0  0  0  0  0  0  0  0  0
    0.2701   -6.6557   30.6314 C   0  0  0  0  0  0  0  0  0  0  0  0
   -0.5134   -7.6823   30.3894 N   0  0  0  0  0  0  0  0  0  0  0  0
   -1.2575   -7.9054   31.5291 N   0  0  0  0  0  0  0  0  0  0  0  0
   -0.9297   -6.9989   32.4288 C   0  0  0  0  0  0  0  0  0  0  0  0
   -1.2876   -6.9752   33.7307 N   0  0  0  0  0  0  0  0  0  0  0  0
   -0.0894   -6.0722   31.8393 N   0  0  0  0  0  0  0  0  0  0  0  0
    0.4639   -4.8304   32.2720 C   0  0  0  0  0  0  0  0  0  0  0  0
   -0.1923   -3.7914   31.5963 N   0  0  0  0  0  0  0  0  0  0  0  0
    0.0938   -2.3214   31.5496 C   0  0  0  0  0  0  0  0  0  0  0  0
    0.8876   -1.6859   32.1349 O   0  0  0  0  0  0  0  0  0  0  0  0
   -0.8502   -1.9220   30.4723 N   0  0  0  0  0  0  0  0  0  0  0  0
   -0.9907   -0.7462   29.8094 C   0  0  0  0  0  0  0  0  0  0  0  0
   -1.6885   -0.5219   28.6150 C   0  0  0  0  0  0  0  0  0  0  0  0
   -1.5455    0.7293   28.1861 N   0  0  0  0  0  0  0  0  0  0  0  0
   -0.6530    1.2602   29.0348 N   0  0  0  0  0  0  0  0  0  0  0  0
   -0.3353    0.4286   30.0684 C   0  0  0  0  0  0  0  0  0  0  0  0
    3.0063   -4.4029   34.1419 C   0  0  0  0  0  0  0  0  0  0  0  0
    3.9978   -3.7699   34.9038 C   0  0  0  0  0  0  0  0  0  0  0  0
    4.1519   -4.2861   36.1669 O   0  0  0  0  0  0  0  0  0  0  0  0
    5.5086   -4.5272   36.5318 C   0  0  0  0  0  0  0  0  0  0  0  0
    6.9057   -1.1304   33.8657 H   0  0  0  0  0  0  0  0  0  0  0  0
    5.5387   -0.1085   34.4653 H   0  0  0  0  0  0  0  0  0  0  0  0
    6.9016   -0.5045   35.5174 H   0  0  0  0  0  0  0  0  0  0  0  0
    4.9874   -1.4503   32.6070 H   0  0  0  0  0  0  0  0  0  0  0  0
    3.3421   -2.6075   31.2774 H   0  0  0  0  0  0  0  0  0  0  0  0
    3.0385   -4.7838   30.1461 H   0  0  0  0  0  0  0  0  0  0  0  0
    1.6690   -6.4105   28.9707 H   0  0  0  0  0  0  0  0  0  0  0  0
   -1.5258   -7.8934   34.1178 H   0  0  0  0  0  0  0  0  0  0  0  0
   -0.7578   -6.4167   34.3943 H   0  0  0  0  0  0  0  0  0  0  0  0
   -0.9940   -3.9920   31.0285 H   0  0  0  0  0  0  0  0  0  0  0  0
   -1.3313   -2.7326   30.1362 H   0  0  0  0  0  0  0  0  0  0  0  0
   -2.2802   -1.2133   28.0285 H   0  0  0  0  0  0  0  0  0  0  0  0
   -0.3113    2.1977   28.8467 H   0  0  0  0  0  0  0  0  0  0  0  0
    0.3637    0.7232   30.8380 H   0  0  0  0  0  0  0  0  0  0  0  0
    2.4536   -5.2270   34.5840 H   0  0  0  0  0  0  0  0  0  0  0  0
    5.5189   -5.3783   37.2200 H   0  0  0  0  0  0  0  0  0  0  0  0
    6.1399   -4.7882   35.6745 H   0  0  0  0  0  0  0  0  0  0  0  0
    5.9153   -3.6663   37.0701 H   0  0  0  0  0  0  0  0  0  0  0  0
  1  2  1  0
  2  3  1  0
  3  4  2  0
  4  5  1  0
  5  6  2  0
  6  7  1  0
  7  8  1  0
  8  9  2  0
  9 10  1  0
 10 11  2  0
 11 12  1  0
 12 13  2  0
 13 14  1  0
 13 15  1  0
 15 16  1  0
 16 17  1  0
 17 18  1  0
 18 19  2  0
 18 20  1  0
 20 21  1  0
 21 22  1  0
 22 23  2  0
 23 24  1  0
 24 25  1  0
  6 26  1  0
 26 27  2  0
 27 28  1  0
 28 29  1  0
 27  3  1  0
 16  7  2  0
 25 21  2  0
 15 10  1  0
  1 30  1  0
  1 31  1  0
  1 32  1  0
  4 33  1  0
  5 34  1  0
  8 35  1  0
  9 36  1  0
 14 37  1  0
 14 38  1  0
 17 39  1  0
 20 40  1  0
 22 41  1  0
 24 42  1  0
 25 43  1  0
 26 44  1  0
 29 45  1  0
 29 46  1  0
 29 47  1  0
M  END
>  <Energy>  (1033) 
141.12676428751496

>  <compound_id>  (1033) 
3824

>  <target_id>  (1033) 
1

>  <reference_id>  (1033) 
196

>  <inspiration_ids>  (1033) 
[132, 196]

>  <energy_score>  (1033) 
-6.231817253660324

>  <distance_score>  (1033) 
1.3831983153181346

>  <path>  (1033) 
/opt/xchem-fragalysis-2/maxwin/BulkDock/SCRATCH/505734/C3824-P196/C3824-P196.minimised.mol

>  <scratch_subdir>  (1033) 
/opt/xchem-fragalysis-2/maxwin/BulkDock/SCRATCH/505734/C3824-P196

>  <fragmenstein_runtime>  (1033) 
4.491006851196289

>  <fragmenstein_outcome>  (1033) 
too moved

>  <fragmenstein_mode>  (1033) 
expansion

>  <fragmenstein_error>  (1033) 


$$$$
C3825-P132
     RDKit          3D

 61 66  0  0  0  0  0  0  0  0999 V2000
    7.5929   -4.2625   31.8346 C   0  0  0  0  0  0  0  0  0  0  0  0
    6.3983   -4.8684   31.8897 C   0  0  0  0  0  0  0  0  0  0  0  0
    5.2630   -4.4209   32.7697 C   0  0  0  0  0  0  0  0  0  0  0  0
    4.6569   -5.4606   33.5990 N   0  0  0  0  0  0  0  0  0  0  0  0
    5.3321   -6.2576   34.5147 C   0  0  0  0  0  0  0  0  0  0  0  0
    6.7635   -6.2741   34.7925 C   0  0  0  0  0  0  0  0  0  0  0  0
    7.4766   -5.1478   35.2091 C   0  0  0  0  0  0  0  0  0  0  0  0
    8.8436   -5.2486   35.4660 C   0  0  0  0  0  0  0  0  0  0  0  0
    9.4573   -6.4790   35.2990 C   0  0  0  0  0  0  0  0  0  0  0  0
    8.8037   -7.5920   34.9065 N   0  0  0  0  0  0  0  0  0  0  0  0
    7.4734   -7.4672   34.6794 C   0  0  0  0  0  0  0  0  0  0  0  0
    4.4632   -7.0895   35.0571 N   0  0  0  0  0  0  0  0  0  0  0  0
    3.2253   -6.8447   34.5372 N   0  0  0  0  0  0  0  0  0  0  0  0
    3.3038   -5.8268   33.6950 C   0  0  0  0  0  0  0  0  0  0  0  0
    2.0197   -5.0561   33.1425 C   0  0  0  0  0  0  0  0  0  0  0  0
    2.2122   -3.5959   33.6384 C   0  0  0  0  0  0  0  0  0  0  0  0
    2.2077   -2.4881   32.7854 C   0  0  0  0  0  0  0  0  0  0  0  0
    3.0153   -1.3910   33.0938 C   0  0  0  0  0  0  0  0  0  0  0  0
    3.8496   -1.4306   34.2163 C   0  0  0  0  0  0  0  0  0  0  0  0
    4.7589   -0.4214   34.3806 O   0  0  0  0  0  0  0  0  0  0  0  0
    6.0393   -0.7918   33.8708 C   0  0  0  0  0  0  0  0  0  0  0  0
    3.7471   -2.4623   35.1488 C   0  0  0  0  0  0  0  0  0  0  0  0
    4.6757   -2.5156   36.1518 O   0  0  0  0  0  0  0  0  0  0  0  0
    4.6563   -3.6339   37.0359 C   0  0  0  0  0  0  0  0  0  0  0  0
    2.8108   -3.4550   34.9156 C   0  0  0  0  0  0  0  0  0  0  0  0
    2.0577   -5.1935   31.5584 C   0  0  0  0  0  0  0  0  0  0  0  0
    0.7111   -5.2735   30.8304 C   0  0  0  0  0  0  0  0  0  0  0  0
   -0.1124   -6.3133   31.4660 C   0  0  0  0  0  0  0  0  0  0  0  0
   -0.9387   -7.2037   30.9635 N   0  0  0  0  0  0  0  0  0  0  0  0
   -1.5599   -7.8297   32.0299 N   0  0  0  0  0  0  0  0  0  0  0  0
   -1.0855   -7.3017   33.1415 C   0  0  0  0  0  0  0  0  0  0  0  0
   -1.3618   -7.4715   34.5191 C   0  0  0  0  0  0  0  0  0  0  0  0
   -0.6533   -6.7774   35.4284 C   0  0  0  0  0  0  0  0  0  0  0  0
    0.4419   -5.9025   35.0353 C   0  0  0  0  0  0  0  0  0  0  0  0
    0.7379   -5.7318   33.7242 C   0  0  0  0  0  0  0  0  0  0  0  0
   -0.0958   -6.4013   32.8241 N   0  0  0  0  0  0  0  0  0  0  0  0
    7.8342   -3.3964   32.4434 H   0  0  0  0  0  0  0  0  0  0  0  0
    8.3744   -4.6356   31.1772 H   0  0  0  0  0  0  0  0  0  0  0  0
    6.2431   -5.7233   31.2392 H   0  0  0  0  0  0  0  0  0  0  0  0
    5.5940   -3.6363   33.4514 H   0  0  0  0  0  0  0  0  0  0  0  0
    4.4965   -4.0074   32.1186 H   0  0  0  0  0  0  0  0  0  0  0  0
    6.9852   -4.1903   35.3507 H   0  0  0  0  0  0  0  0  0  0  0  0
    9.4161   -4.3886   35.7963 H   0  0  0  0  0  0  0  0  0  0  0  0
   10.5197   -6.6072   35.4880 H   0  0  0  0  0  0  0  0  0  0  0  0
    6.9766   -8.3901   34.3874 H   0  0  0  0  0  0  0  0  0  0  0  0
    1.6817   -2.4910   31.8347 H   0  0  0  0  0  0  0  0  0  0  0  0
    3.0662   -0.5424   32.4155 H   0  0  0  0  0  0  0  0  0  0  0  0
    5.9760   -1.1175   32.8265 H   0  0  0  0  0  0  0  0  0  0  0  0
    6.5025   -1.5694   34.4861 H   0  0  0  0  0  0  0  0  0  0  0  0
    6.6821    0.0927   33.9087 H   0  0  0  0  0  0  0  0  0  0  0  0
    3.7402   -3.6326   37.6358 H   0  0  0  0  0  0  0  0  0  0  0  0
    5.5017   -3.5274   37.7224 H   0  0  0  0  0  0  0  0  0  0  0  0
    4.7742   -4.5800   36.5116 H   0  0  0  0  0  0  0  0  0  0  0  0
    2.7388   -4.2705   35.6281 H   0  0  0  0  0  0  0  0  0  0  0  0
    2.5603   -6.1261   31.3155 H   0  0  0  0  0  0  0  0  0  0  0  0
    2.6683   -4.4189   31.0843 H   0  0  0  0  0  0  0  0  0  0  0  0
    0.1948   -4.3084   30.8765 H   0  0  0  0  0  0  0  0  0  0  0  0
    0.8762   -5.5092   29.7746 H   0  0  0  0  0  0  0  0  0  0  0  0
   -2.1419   -8.1620   34.8126 H   0  0  0  0  0  0  0  0  0  0  0  0
   -0.8385   -6.8992   36.4916 H   0  0  0  0  0  0  0  0  0  0  0  0
    1.0433   -5.5091   35.8453 H   0  0  0  0  0  0  0  0  0  0  0  0
  1  2  2  0
  2  3  1  0
  3  4  1  0
  4  5  1  0
  5  6  1  0
  6  7  2  0
  7  8  1  0
  8  9  2  0
  9 10  1  0
 10 11  2  0
  5 12  2  0
 12 13  1  0
 13 14  2  0
 14 15  1  0
 15 16  1  0
 16 17  2  0
 17 18  1  0
 18 19  2  0
 19 20  1  0
 20 21  1  0
 19 22  1  0
 22 23  1  0
 23 24  1  0
 22 25  2  0
 15 26  1  0
 26 27  1  0
 27 28  1  0
 28 29  2  0
 29 30  1  0
 30 31  2  0
 31 32  1  0
 32 33  2  0
 33 34  1  0
 34 35  2  0
 35 36  1  0
 14  4  1  0
 35 15  1  0
 11  6  1  0
 25 16  1  0
 36 28  1  0
 36 31  1  0
  1 37  1  0
  1 38  1  0
  2 39  1  0
  3 40  1  0
  3 41  1  0
  7 42  1  0
  8 43  1  0
  9 44  1  0
 11 45  1  0
 17 46  1  0
 18 47  1  0
 21 48  1  0
 21 49  1  0
 21 50  1  0
 24 51  1  0
 24 52  1  0
 24 53  1  0
 25 54  1  0
 26 55  1  0
 26 56  1  0
 27 57  1  0
 27 58  1  0
 32 59  1  0
 33 60  1  0
 34 61  1  0
M  END
>  <Energy>  (1034) 
157.3718132484963

>  <compound_id>  (1034) 
3825

>  <target_id>  (1034) 
1

>  <reference_id>  (1034) 
132

>  <inspiration_ids>  (1034) 
[132, 197]

>  <energy_score>  (1034) 
-56.375961474421274

>  <distance_score>  (1034) 
1.3425392702158039

>  <path>  (1034) 
/opt/xchem-fragalysis-2/maxwin/BulkDock/SCRATCH/505734/C3825-P132/C3825-P132.minimised.mol

>  <scratch_subdir>  (1034) 
/opt/xchem-fragalysis-2/maxwin/BulkDock/SCRATCH/505734/C3825-P132

>  <fragmenstein_runtime>  (1034) 
4.116243839263916

>  <fragmenstein_outcome>  (1034) 
too moved

>  <fragmenstein_mode>  (1034) 
expansion

>  <fragmenstein_error>  (1034) 


$$$$
C3825-P197
     RDKit          3D

 61 66  0  0  0  0  0  0  0  0999 V2000
    4.9532   -3.5720   28.5572 C   0  0  0  0  0  0  0  0  0  0  0  0
    4.0859   -3.9092   29.5217 C   0  0  0  0  0  0  0  0  0  0  0  0
    4.1108   -3.3495   30.9161 C   0  0  0  0  0  0  0  0  0  0  0  0
    4.0883   -4.3892   31.9338 N   0  0  0  0  0  0  0  0  0  0  0  0
    5.2179   -4.8351   32.6117 C   0  0  0  0  0  0  0  0  0  0  0  0
    6.6080   -4.4743   32.3651 C   0  0  0  0  0  0  0  0  0  0  0  0
    7.4139   -3.9968   33.3998 C   0  0  0  0  0  0  0  0  0  0  0  0
    8.7440   -3.6633   33.1510 C   0  0  0  0  0  0  0  0  0  0  0  0
    9.2336   -3.8311   31.8667 C   0  0  0  0  0  0  0  0  0  0  0  0
    8.4965   -4.3143   30.8438 N   0  0  0  0  0  0  0  0  0  0  0  0
    7.2140   -4.6487   31.1259 C   0  0  0  0  0  0  0  0  0  0  0  0
    4.8290   -5.6925   33.5322 N   0  0  0  0  0  0  0  0  0  0  0  0
    3.4771   -5.8825   33.4244 N   0  0  0  0  0  0  0  0  0  0  0  0
    2.9941   -5.0068   32.5578 C   0  0  0  0  0  0  0  0  0  0  0  0
    1.5585   -4.4242   32.7604 C   0  0  0  0  0  0  0  0  0  0  0  0
    1.9138   -3.1563   33.6091 C   0  0  0  0  0  0  0  0  0  0  0  0
    1.8602   -1.8709   33.0721 C   0  0  0  0  0  0  0  0  0  0  0  0
    2.8125   -0.9332   33.4779 C   0  0  0  0  0  0  0  0  0  0  0  0
    3.8123   -1.2787   34.3989 C   0  0  0  0  0  0  0  0  0  0  0  0
    4.7982   -0.3512   34.6060 O   0  0  0  0  0  0  0  0  0  0  0  0
    6.0485   -0.7809   34.0676 C   0  0  0  0  0  0  0  0  0  0  0  0
    3.7797   -2.4968   35.0749 C   0  0  0  0  0  0  0  0  0  0  0  0
    4.7902   -2.7756   35.9530 O   0  0  0  0  0  0  0  0  0  0  0  0
    4.8487   -4.0729   36.5420 C   0  0  0  0  0  0  0  0  0  0  0  0
    2.7657   -3.3801   34.7381 C   0  0  0  0  0  0  0  0  0  0  0  0
    0.8686   -4.1576   31.3781 C   0  0  0  0  0  0  0  0  0  0  0  0
    0.6317   -5.4371   30.5465 C   0  0  0  0  0  0  0  0  0  0  0  0
   -0.0576   -6.4614   31.3535 C   0  0  0  0  0  0  0  0  0  0  0  0
   -0.7953   -7.4831   30.9754 N   0  0  0  0  0  0  0  0  0  0  0  0
   -1.3215   -8.0556   32.1175 N   0  0  0  0  0  0  0  0  0  0  0  0
   -0.8884   -7.3661   33.1538 C   0  0  0  0  0  0  0  0  0  0  0  0
   -1.1260   -7.4278   34.5478 C   0  0  0  0  0  0  0  0  0  0  0  0
   -0.5704   -6.5052   35.3542 C   0  0  0  0  0  0  0  0  0  0  0  0
    0.2899   -5.4494   34.8330 C   0  0  0  0  0  0  0  0  0  0  0  0
    0.6062   -5.4157   33.5164 C   0  0  0  0  0  0  0  0  0  0  0  0
   -0.0388   -6.3734   32.7165 N   0  0  0  0  0  0  0  0  0  0  0  0
    4.8735   -3.9992   27.5605 H   0  0  0  0  0  0  0  0  0  0  0  0
    5.7603   -2.8632   28.7257 H   0  0  0  0  0  0  0  0  0  0  0  0
    3.2964   -4.6114   29.2705 H   0  0  0  0  0  0  0  0  0  0  0  0
    4.9937   -2.7231   31.0832 H   0  0  0  0  0  0  0  0  0  0  0  0
    3.2596   -2.6907   31.0545 H   0  0  0  0  0  0  0  0  0  0  0  0
    7.0115   -3.8850   34.4039 H   0  0  0  0  0  0  0  0  0  0  0  0
    9.3832   -3.2885   33.9431 H   0  0  0  0  0  0  0  0  0  0  0  0
   10.2634   -3.5846   31.6228 H   0  0  0  0  0  0  0  0  0  0  0  0
    6.6806   -5.0950   30.2922 H   0  0  0  0  0  0  0  0  0  0  0  0
    1.1898   -1.6108   32.2576 H   0  0  0  0  0  0  0  0  0  0  0  0
    2.8308    0.0535   33.0196 H   0  0  0  0  0  0  0  0  0  0  0  0
    5.9301   -1.3138   33.1178 H   0  0  0  0  0  0  0  0  0  0  0  0
    6.5880   -1.3930   34.7950 H   0  0  0  0  0  0  0  0  0  0  0  0
    6.6510    0.1122   33.8752 H   0  0  0  0  0  0  0  0  0  0  0  0
    5.0043   -4.8514   35.7969 H   0  0  0  0  0  0  0  0  0  0  0  0
    5.7103   -4.0882   37.2166 H   0  0  0  0  0  0  0  0  0  0  0  0
    3.9563   -4.2710   37.1445 H   0  0  0  0  0  0  0  0  0  0  0  0
    2.7846   -4.3664   35.1946 H   0  0  0  0  0  0  0  0  0  0  0  0
    1.4135   -3.4508   30.7516 H   0  0  0  0  0  0  0  0  0  0  0  0
   -0.1051   -3.6778   31.5627 H   0  0  0  0  0  0  0  0  0  0  0  0
    0.0250   -5.1813   29.6724 H   0  0  0  0  0  0  0  0  0  0  0  0
    1.5792   -5.8421   30.1806 H   0  0  0  0  0  0  0  0  0  0  0  0
   -1.7583   -8.2156   34.9368 H   0  0  0  0  0  0  0  0  0  0  0  0
   -0.7394   -6.5305   36.4275 H   0  0  0  0  0  0  0  0  0  0  0  0
    0.6542   -4.7384   35.5650 H   0  0  0  0  0  0  0  0  0  0  0  0
  1  2  2  0
  2  3  1  0
  3  4  1  0
  4  5  1  0
  5  6  1  0
  6  7  2  0
  7  8  1  0
  8  9  2  0
  9 10  1  0
 10 11  2  0
  5 12  2  0
 12 13  1  0
 13 14  2  0
 14 15  1  0
 15 16  1  0
 16 17  2  0
 17 18  1  0
 18 19  2  0
 19 20  1  0
 20 21  1  0
 19 22  1  0
 22 23  1  0
 23 24  1  0
 22 25  2  0
 15 26  1  0
 26 27  1  0
 27 28  1  0
 28 29  2  0
 29 30  1  0
 30 31  2  0
 31 32  1  0
 32 33  2  0
 33 34  1  0
 34 35  2  0
 35 36  1  0
 14  4  1  0
 35 15  1  0
 11  6  1  0
 25 16  1  0
 36 28  1  0
 36 31  1  0
  1 37  1  0
  1 38  1  0
  2 39  1  0
  3 40  1  0
  3 41  1  0
  7 42  1  0
  8 43  1  0
  9 44  1  0
 11 45  1  0
 17 46  1  0
 18 47  1  0
 21 48  1  0
 21 49  1  0
 21 50  1  0
 24 51  1  0
 24 52  1  0
 24 53  1  0
 25 54  1  0
 26 55  1  0
 26 56  1  0
 27 57  1  0
 27 58  1  0
 32 59  1  0
 33 60  1  0
 34 61  1  0
M  END
>  <Energy>  (1035) 
156.90466698028951

>  <compound_id>  (1035) 
3825

>  <target_id>  (1035) 
1

>  <reference_id>  (1035) 
197

>  <inspiration_ids>  (1035) 
[132, 197]

>  <energy_score>  (1035) 
-56.84310774262815

>  <distance_score>  (1035) 
1.291237251952234

>  <path>  (1035) 
/opt/xchem-fragalysis-2/maxwin/BulkDock/SCRATCH/505734/C3825-P197/C3825-P197.minimised.mol

>  <scratch_subdir>  (1035) 
/opt/xchem-fragalysis-2/maxwin/BulkDock/SCRATCH/505734/C3825-P197

>  <fragmenstein_runtime>  (1035) 
5.516599416732788

>  <fragmenstein_outcome>  (1035) 
too moved

>  <fragmenstein_mode>  (1035) 
expansion

>  <fragmenstein_error>  (1035) 


$$$$
C3851-P132
     RDKit          3D

 67 70  0  0  0  0  0  0  0  0999 V2000
    0.4187   -0.2735   35.7080 C   0  0  0  0  0  0  0  0  0  0  0  0
    0.9668   -1.3073   35.0541 C   0  0  0  0  0  0  0  0  0  0  0  0
    0.2557   -2.0713   33.9723 C   0  0  0  0  0  0  0  0  0  0  0  0
    1.0166   -2.4731   32.6683 C   0  0  0  0  0  0  0  0  0  0  0  0
    1.7215   -3.8551   32.7403 C   0  0  0  0  0  0  0  0  0  0  0  0
    0.7479   -4.9544   32.4467 C   0  0  0  0  0  0  0  0  0  0  0  0
    0.6103   -5.2176   31.0138 C   0  0  0  0  0  0  0  0  0  0  0  0
   -0.0684   -6.2731   30.5686 C   0  0  0  0  0  0  0  0  0  0  0  0
   -0.6717   -7.1430   31.4831 C   0  0  0  0  0  0  0  0  0  0  0  0
   -1.3299   -8.2490   31.2847 N   0  0  0  0  0  0  0  0  0  0  0  0
   -1.7084   -8.6794   32.5077 N   0  0  0  0  0  0  0  0  0  0  0  0
   -1.3363   -7.8189   33.4462 C   0  0  0  0  0  0  0  0  0  0  0  0
   -1.7527   -7.9055   34.9084 C   0  0  0  0  0  0  0  0  0  0  0  0
   -3.1492   -8.5695   34.9394 C   0  0  0  0  0  0  0  0  0  0  0  0
   -3.7454   -9.6102   35.8418 C   0  0  0  0  0  0  0  0  0  0  0  0
   -0.6143   -6.8275   32.8351 N   0  0  0  0  0  0  0  0  0  0  0  0
    0.0884   -5.7353   33.3245 C   0  0  0  0  0  0  0  0  0  0  0  0
    2.6566   -3.9565   33.9371 C   0  0  0  0  0  0  0  0  0  0  0  0
    3.2567   -5.6935   34.1977 S   0  0  0  0  0  0  0  0  0  0  0  0
    3.8307   -2.9864   33.6768 C   0  0  0  0  0  0  0  0  0  0  0  0
    4.4748   -2.6485   34.9275 O   0  0  0  0  0  0  0  0  0  0  0  0
    5.3283   -3.6362   35.5001 C   0  0  0  0  0  0  0  0  0  0  0  0
    3.4837   -1.6531   32.7905 C   0  0  0  0  0  0  0  0  0  0  0  0
    3.8660   -0.4856   33.5347 O   0  0  0  0  0  0  0  0  0  0  0  0
    5.2703   -0.2188   33.4766 C   0  0  0  0  0  0  0  0  0  0  0  0
    2.0126   -1.4530   32.0555 C   0  0  0  0  0  0  0  0  0  0  0  0
    1.4691    0.0193   32.0553 C   0  0  0  0  0  0  0  0  0  0  0  0
    0.2110    0.2411   31.1809 C   0  0  0  0  0  0  0  0  0  0  0  0
    0.4171   -0.1941   29.7326 C   0  0  0  0  0  0  0  0  0  0  0  0
    0.9193   -1.5655   29.6687 N   0  0  0  0  0  0  0  0  0  0  0  0
    2.1393   -1.7325   30.4823 C   0  0  0  0  0  0  0  0  0  0  0  0
    0.9784    0.2468   36.4804 H   0  0  0  0  0  0  0  0  0  0  0  0
   -0.5837    0.0796   35.4916 H   0  0  0  0  0  0  0  0  0  0  0  0
    1.9746   -1.5917   35.3433 H   0  0  0  0  0  0  0  0  0  0  0  0
   -0.1617   -2.9766   34.4300 H   0  0  0  0  0  0  0  0  0  0  0  0
   -0.6214   -1.4855   33.6642 H   0  0  0  0  0  0  0  0  0  0  0  0
    0.1924   -2.5831   31.9524 H   0  0  0  0  0  0  0  0  0  0  0  0
    2.4238   -3.9326   31.8987 H   0  0  0  0  0  0  0  0  0  0  0  0
    1.0409   -4.5365   30.2854 H   0  0  0  0  0  0  0  0  0  0  0  0
   -0.2104   -6.4501   29.5239 H   0  0  0  0  0  0  0  0  0  0  0  0
   -1.8165   -6.8969   35.3304 H   0  0  0  0  0  0  0  0  0  0  0  0
   -1.0041   -8.4428   35.4938 H   0  0  0  0  0  0  0  0  0  0  0  0
   -3.8761   -7.7975   35.0147 H   0  0  0  0  0  0  0  0  0  0  0  0
   -3.3149   -8.9343   33.9551 H   0  0  0  0  0  0  0  0  0  0  0  0
   -3.0394  -10.2410   36.3411 H   0  0  0  0  0  0  0  0  0  0  0  0
   -4.4494   -9.1840   36.5406 H   0  0  0  0  0  0  0  0  0  0  0  0
   -4.4337  -10.2305   35.2751 H   0  0  0  0  0  0  0  0  0  0  0  0
    0.1257   -5.6083   34.3993 H   0  0  0  0  0  0  0  0  0  0  0  0
    2.1477   -3.7274   34.8747 H   0  0  0  0  0  0  0  0  0  0  0  0
    4.2371   -5.6548   33.2867 H   0  0  0  0  0  0  0  0  0  0  0  0
    4.5804   -3.4991   33.0565 H   0  0  0  0  0  0  0  0  0  0  0  0
    4.7516   -4.3238   36.1214 H   0  0  0  0  0  0  0  0  0  0  0  0
    5.9089   -4.1643   34.7387 H   0  0  0  0  0  0  0  0  0  0  0  0
    6.0302   -3.1195   36.1616 H   0  0  0  0  0  0  0  0  0  0  0  0
    4.1793   -1.7119   31.9400 H   0  0  0  0  0  0  0  0  0  0  0  0
    5.4944    0.5709   34.1985 H   0  0  0  0  0  0  0  0  0  0  0  0
    5.5282    0.1450   32.4772 H   0  0  0  0  0  0  0  0  0  0  0  0
    5.8782   -1.0950   33.7123 H   0  0  0  0  0  0  0  0  0  0  0  0
    1.2638    0.3725   33.0671 H   0  0  0  0  0  0  0  0  0  0  0  0
    2.2605    0.6800   31.6744 H   0  0  0  0  0  0  0  0  0  0  0  0
   -0.6394   -0.2992   31.6115 H   0  0  0  0  0  0  0  0  0  0  0  0
   -0.0500    1.3050   31.2030 H   0  0  0  0  0  0  0  0  0  0  0  0
    1.1247    0.4788   29.2340 H   0  0  0  0  0  0  0  0  0  0  0  0
   -0.5272   -0.1243   29.1818 H   0  0  0  0  0  0  0  0  0  0  0  0
    0.1819   -2.2043   29.9562 H   0  0  0  0  0  0  0  0  0  0  0  0
    2.5321   -2.7339   30.2913 H   0  0  0  0  0  0  0  0  0  0  0  0
    2.9096   -1.0623   30.0743 H   0  0  0  0  0  0  0  0  0  0  0  0
  1  2  2  0
  2  3  1  0
  3  4  1  0
  4  5  1  0
  5  6  1  0
  6  7  1  0
  7  8  2  0
  8  9  1  0
  9 10  2  0
 10 11  1  0
 11 12  2  0
 12 13  1  0
 13 14  1  0
 14 15  1  0
 12 16  1  0
 16 17  1  0
  5 18  1  0
 18 19  1  0
 18 20  1  0
 20 21  1  0
 21 22  1  0
 20 23  1  0
 23 24  1  0
 24 25  1  0
 23 26  1  0
 26 27  1  0
 27 28  1  0
 28 29  1  0
 29 30  1  0
 30 31  1  0
 26  4  1  0
 17  6  2  0
 31 26  1  0
 16  9  1  0
  1 32  1  0
  1 33  1  0
  2 34  1  0
  3 35  1  0
  3 36  1  0
  4 37  1  0
  5 38  1  0
  7 39  1  0
  8 40  1  0
 13 41  1  0
 13 42  1  0
 14 43  1  0
 14 44  1  0
 15 45  1  0
 15 46  1  0
 15 47  1  0
 17 48  1  0
 18 49  1  0
 19 50  1  0
 20 51  1  0
 22 52  1  0
 22 53  1  0
 22 54  1  0
 23 55  1  0
 25 56  1  0
 25 57  1  0
 25 58  1  0
 27 59  1  0
 27 60  1  0
 28 61  1  0
 28 62  1  0
 29 63  1  0
 29 64  1  0
 30 65  1  0
 31 66  1  0
 31 67  1  0
M  END
>  <Energy>  (1036) 
190.23646313752292

>  <compound_id>  (1036) 
3851

>  <target_id>  (1036) 
1

>  <reference_id>  (1036) 
132

>  <inspiration_ids>  (1036) 
[132, 198]

>  <energy_score>  (1036) 
-80.08724148614954

>  <distance_score>  (1036) 
2.0618545639902464

>  <path>  (1036) 
/opt/xchem-fragalysis-2/maxwin/BulkDock/SCRATCH/505734/C3851-P132/C3851-P132.minimised.mol

>  <scratch_subdir>  (1036) 
/opt/xchem-fragalysis-2/maxwin/BulkDock/SCRATCH/505734/C3851-P132

>  <fragmenstein_runtime>  (1036) 
4.582622289657593

>  <fragmenstein_outcome>  (1036) 
too moved

>  <fragmenstein_mode>  (1036) 
expansion

>  <fragmenstein_error>  (1036) 


$$$$
C3851-P198
     RDKit          3D

 67 70  0  0  0  0  0  0  0  0999 V2000
    0.2240   -0.4735   35.7355 C   0  0  0  0  0  0  0  0  0  0  0  0
    0.8829   -1.3915   35.0143 C   0  0  0  0  0  0  0  0  0  0  0  0
    0.2680   -2.1248   33.8531 C   0  0  0  0  0  0  0  0  0  0  0  0
    1.1150   -2.4072   32.5724 C   0  0  0  0  0  0  0  0  0  0  0  0
    1.9266   -3.7307   32.5977 C   0  0  0  0  0  0  0  0  0  0  0  0
    1.0571   -4.8758   32.2097 C   0  0  0  0  0  0  0  0  0  0  0  0
    1.1043   -5.2111   30.7915 C   0  0  0  0  0  0  0  0  0  0  0  0
    0.4807   -6.2918   30.3204 C   0  0  0  0  0  0  0  0  0  0  0  0
   -0.2800   -7.0947   31.1837 C   0  0  0  0  0  0  0  0  0  0  0  0
   -1.0126   -8.1551   30.9698 N   0  0  0  0  0  0  0  0  0  0  0  0
   -1.4451   -8.5730   32.1896 N   0  0  0  0  0  0  0  0  0  0  0  0
   -0.9994   -7.7523   33.1300 C   0  0  0  0  0  0  0  0  0  0  0  0
   -1.2876   -7.8431   34.6038 C   0  0  0  0  0  0  0  0  0  0  0  0
   -2.7355   -8.2967   34.7191 C   0  0  0  0  0  0  0  0  0  0  0  0
   -3.3491   -9.2694   35.6836 C   0  0  0  0  0  0  0  0  0  0  0  0
   -0.2879   -6.7611   32.5271 N   0  0  0  0  0  0  0  0  0  0  0  0
    0.3561   -5.6554   33.0467 C   0  0  0  0  0  0  0  0  0  0  0  0
    2.7867   -3.8521   33.8451 C   0  0  0  0  0  0  0  0  0  0  0  0
    3.5056   -5.5470   34.0537 S   0  0  0  0  0  0  0  0  0  0  0  0
    3.8944   -2.7929   33.7282 C   0  0  0  0  0  0  0  0  0  0  0  0
    4.3668   -2.4345   35.0473 O   0  0  0  0  0  0  0  0  0  0  0  0
    5.1973   -3.3920   35.7044 C   0  0  0  0  0  0  0  0  0  0  0  0
    3.5402   -1.4861   32.8073 C   0  0  0  0  0  0  0  0  0  0  0  0
    3.9792   -0.3065   33.4933 O   0  0  0  0  0  0  0  0  0  0  0  0
    5.3977   -0.1290   33.4615 C   0  0  0  0  0  0  0  0  0  0  0  0
    2.0559   -1.2849   32.0608 C   0  0  0  0  0  0  0  0  0  0  0  0
    1.4499    0.1642   32.1618 C   0  0  0  0  0  0  0  0  0  0  0  0
    0.6025    0.6671   30.9621 C   0  0  0  0  0  0  0  0  0  0  0  0
   -0.0118   -0.4328   30.1152 C   0  0  0  0  0  0  0  0  0  0  0  0
    0.9901   -1.3846   29.6509 N   0  0  0  0  0  0  0  0  0  0  0  0
    2.2057   -1.4641   30.4780 C   0  0  0  0  0  0  0  0  0  0  0  0
    0.7142    0.0312   36.5633 H   0  0  0  0  0  0  0  0  0  0  0  0
   -0.8047   -0.2035   35.5220 H   0  0  0  0  0  0  0  0  0  0  0  0
    1.9079   -1.5987   35.3056 H   0  0  0  0  0  0  0  0  0  0  0  0
   -0.1256   -3.0734   34.2360 H   0  0  0  0  0  0  0  0  0  0  0  0
   -0.6196   -1.5632   33.5272 H   0  0  0  0  0  0  0  0  0  0  0  0
    0.3360   -2.5512   31.8137 H   0  0  0  0  0  0  0  0  0  0  0  0
    2.6738   -3.7010   31.7932 H   0  0  0  0  0  0  0  0  0  0  0  0
    1.6888   -4.6053   30.1047 H   0  0  0  0  0  0  0  0  0  0  0  0
    0.5966   -6.5739   29.2978 H   0  0  0  0  0  0  0  0  0  0  0  0
   -1.1925   -6.8573   35.0748 H   0  0  0  0  0  0  0  0  0  0  0  0
   -0.5637   -8.4718   35.1210 H   0  0  0  0  0  0  0  0  0  0  0  0
   -3.2131   -7.3615   34.8870 H   0  0  0  0  0  0  0  0  0  0  0  0
   -3.0553   -8.6809   33.7656 H   0  0  0  0  0  0  0  0  0  0  0  0
   -2.7167   -9.4013   36.5265 H   0  0  0  0  0  0  0  0  0  0  0  0
   -3.5075  -10.2363   35.2612 H   0  0  0  0  0  0  0  0  0  0  0  0
   -4.3620   -8.9890   35.9780 H   0  0  0  0  0  0  0  0  0  0  0  0
    0.3017   -5.4914   34.1151 H   0  0  0  0  0  0  0  0  0  0  0  0
    2.2013   -3.7203   34.7569 H   0  0  0  0  0  0  0  0  0  0  0  0
    4.4546   -5.4300   33.1147 H   0  0  0  0  0  0  0  0  0  0  0  0
    4.7549   -3.2286   33.1992 H   0  0  0  0  0  0  0  0  0  0  0  0
    4.5868   -4.1357   36.2199 H   0  0  0  0  0  0  0  0  0  0  0  0
    5.9095   -3.8539   35.0150 H   0  0  0  0  0  0  0  0  0  0  0  0
    5.7676   -2.8586   36.4708 H   0  0  0  0  0  0  0  0  0  0  0  0
    4.2120   -1.5976   31.9424 H   0  0  0  0  0  0  0  0  0  0  0  0
    5.6448    0.7225   34.1013 H   0  0  0  0  0  0  0  0  0  0  0  0
    5.9410   -1.0049   33.8218 H   0  0  0  0  0  0  0  0  0  0  0  0
    5.7147    0.1055   32.4406 H   0  0  0  0  0  0  0  0  0  0  0  0
    0.8558    0.2897   33.0665 H   0  0  0  0  0  0  0  0  0  0  0  0
    2.2695    0.8859   32.2678 H   0  0  0  0  0  0  0  0  0  0  0  0
   -0.1831    1.3330   31.3362 H   0  0  0  0  0  0  0  0  0  0  0  0
    1.2440    1.2892   30.3231 H   0  0  0  0  0  0  0  0  0  0  0  0
   -0.5236    0.0001   29.2491 H   0  0  0  0  0  0  0  0  0  0  0  0
   -0.7765   -0.9539   30.7022 H   0  0  0  0  0  0  0  0  0  0  0  0
    0.5572   -2.2932   29.4975 H   0  0  0  0  0  0  0  0  0  0  0  0
    2.7187   -2.3975   30.2291 H   0  0  0  0  0  0  0  0  0  0  0  0
    2.8924   -0.6832   30.1207 H   0  0  0  0  0  0  0  0  0  0  0  0
  1  2  2  0
  2  3  1  0
  3  4  1  0
  4  5  1  0
  5  6  1  0
  6  7  1  0
  7  8  2  0
  8  9  1  0
  9 10  2  0
 10 11  1  0
 11 12  2  0
 12 13  1  0
 13 14  1  0
 14 15  1  0
 12 16  1  0
 16 17  1  0
  5 18  1  0
 18 19  1  0
 18 20  1  0
 20 21  1  0
 21 22  1  0
 20 23  1  0
 23 24  1  0
 24 25  1  0
 23 26  1  0
 26 27  1  0
 27 28  1  0
 28 29  1  0
 29 30  1  0
 30 31  1  0
 26  4  1  0
 17  6  2  0
 31 26  1  0
 16  9  1  0
  1 32  1  0
  1 33  1  0
  2 34  1  0
  3 35  1  0
  3 36  1  0
  4 37  1  0
  5 38  1  0
  7 39  1  0
  8 40  1  0
 13 41  1  0
 13 42  1  0
 14 43  1  0
 14 44  1  0
 15 45  1  0
 15 46  1  0
 15 47  1  0
 17 48  1  0
 18 49  1  0
 19 50  1  0
 20 51  1  0
 22 52  1  0
 22 53  1  0
 22 54  1  0
 23 55  1  0
 25 56  1  0
 25 57  1  0
 25 58  1  0
 27 59  1  0
 27 60  1  0
 28 61  1  0
 28 62  1  0
 29 63  1  0
 29 64  1  0
 30 65  1  0
 31 66  1  0
 31 67  1  0
M  END
>  <Energy>  (1037) 
195.68833401320987

>  <compound_id>  (1037) 
3851

>  <target_id>  (1037) 
1

>  <reference_id>  (1037) 
198

>  <inspiration_ids>  (1037) 
[132, 198]

>  <energy_score>  (1037) 
-74.63537061046412

>  <distance_score>  (1037) 
2.061371265147785

>  <path>  (1037) 
/opt/xchem-fragalysis-2/maxwin/BulkDock/SCRATCH/505734/C3851-P198/C3851-P198.minimised.mol

>  <scratch_subdir>  (1037) 
/opt/xchem-fragalysis-2/maxwin/BulkDock/SCRATCH/505734/C3851-P198

>  <fragmenstein_runtime>  (1037) 
5.5409815311431885

>  <fragmenstein_outcome>  (1037) 
too moved

>  <fragmenstein_mode>  (1037) 
expansion

>  <fragmenstein_error>  (1037) 


$$$$
C3827-P132
     RDKit          3D

 46 49  0  0  0  0  0  0  0  0999 V2000
    6.5499   -0.5445   33.5958 C   0  0  0  0  0  0  0  0  0  0  0  0
    6.0197   -1.3732   34.6175 O   0  0  0  0  0  0  0  0  0  0  0  0
    5.0899   -2.2983   34.2428 C   0  0  0  0  0  0  0  0  0  0  0  0
    4.4852   -2.3601   32.9931 C   0  0  0  0  0  0  0  0  0  0  0  0
    3.5498   -3.3587   32.7328 C   0  0  0  0  0  0  0  0  0  0  0  0
    3.1392   -4.2559   33.7405 C   0  0  0  0  0  0  0  0  0  0  0  0
    2.0620   -5.2286   33.5497 C   0  0  0  0  0  0  0  0  0  0  0  0
    1.8102   -6.4593   34.3016 C   0  0  0  0  0  0  0  0  0  0  0  0
    0.7428   -7.2496   34.0602 C   0  0  0  0  0  0  0  0  0  0  0  0
   -0.1061   -6.9604   32.9744 C   0  0  0  0  0  0  0  0  0  0  0  0
   -1.0308   -7.6077   32.3031 N   0  0  0  0  0  0  0  0  0  0  0  0
   -1.4599   -6.7566   31.3064 N   0  0  0  0  0  0  0  0  0  0  0  0
   -0.8838   -5.5833   31.4872 C   0  0  0  0  0  0  0  0  0  0  0  0
   -0.9071   -4.4238   30.7856 N   0  0  0  0  0  0  0  0  0  0  0  0
   -1.3671   -3.1564   31.3681 C   0  0  0  0  0  0  0  0  0  0  0  0
   -1.0876   -1.9553   30.4692 C   0  0  0  0  0  0  0  0  0  0  0  0
   -0.6209   -0.7634   31.0112 C   0  0  0  0  0  0  0  0  0  0  0  0
   -0.4864    0.3406   30.1788 C   0  0  0  0  0  0  0  0  0  0  0  0
   -0.7984    0.3645   28.8688 N   0  0  0  0  0  0  0  0  0  0  0  0
   -1.2446   -0.7842   28.3485 C   0  0  0  0  0  0  0  0  0  0  0  0
   -1.3900   -1.9415   29.1007 C   0  0  0  0  0  0  0  0  0  0  0  0
    0.0816   -5.7311   32.4167 N   0  0  0  0  0  0  0  0  0  0  0  0
    1.1225   -4.8804   32.6732 C   0  0  0  0  0  0  0  0  0  0  0  0
    3.7426   -4.1814   34.9833 C   0  0  0  0  0  0  0  0  0  0  0  0
    4.7476   -3.2531   35.2059 C   0  0  0  0  0  0  0  0  0  0  0  0
    5.4030   -3.2852   36.4070 O   0  0  0  0  0  0  0  0  0  0  0  0
    6.1630   -4.4920   36.5156 C   0  0  0  0  0  0  0  0  0  0  0  0
    7.0015   -1.1369   32.7929 H   0  0  0  0  0  0  0  0  0  0  0  0
    7.3411    0.0680   34.0391 H   0  0  0  0  0  0  0  0  0  0  0  0
    5.7864    0.1360   33.2047 H   0  0  0  0  0  0  0  0  0  0  0  0
    4.7298   -1.6650   32.1973 H   0  0  0  0  0  0  0  0  0  0  0  0
    3.1424   -3.4059   31.7252 H   0  0  0  0  0  0  0  0  0  0  0  0
    2.4556   -6.6952   35.1422 H   0  0  0  0  0  0  0  0  0  0  0  0
    0.5012   -8.0798   34.7094 H   0  0  0  0  0  0  0  0  0  0  0  0
   -1.0996   -4.4901   29.7887 H   0  0  0  0  0  0  0  0  0  0  0  0
   -0.9120   -2.9924   32.3511 H   0  0  0  0  0  0  0  0  0  0  0  0
   -2.4503   -3.1902   31.5228 H   0  0  0  0  0  0  0  0  0  0  0  0
   -0.3656   -0.6753   32.0619 H   0  0  0  0  0  0  0  0  0  0  0  0
   -0.1051    1.2809   30.5683 H   0  0  0  0  0  0  0  0  0  0  0  0
   -1.5031   -0.7617   27.2941 H   0  0  0  0  0  0  0  0  0  0  0  0
   -1.7739   -2.8197   28.6022 H   0  0  0  0  0  0  0  0  0  0  0  0
    1.1397   -3.9684   32.0946 H   0  0  0  0  0  0  0  0  0  0  0  0
    3.4451   -4.8254   35.8039 H   0  0  0  0  0  0  0  0  0  0  0  0
    6.8854   -4.3549   37.3261 H   0  0  0  0  0  0  0  0  0  0  0  0
    6.7257   -4.7075   35.5995 H   0  0  0  0  0  0  0  0  0  0  0  0
    5.5212   -5.3378   36.7829 H   0  0  0  0  0  0  0  0  0  0  0  0
  1  2  1  0
  2  3  1  0
  3  4  2  0
  4  5  1  0
  5  6  2  0
  6  7  1  0
  7  8  1  0
  8  9  2  0
  9 10  1  0
 10 11  2  0
 11 12  1  0
 12 13  2  0
 13 14  1  0
 14 15  1  0
 15 16  1  0
 16 17  2  0
 17 18  1  0
 18 19  2  0
 19 20  1  0
 20 21  2  0
 13 22  1  0
 22 23  1  0
  6 24  1  0
 24 25  2  0
 25 26  1  0
 26 27  1  0
 25  3  1  0
 23  7  2  0
 22 10  1  0
 21 16  1  0
  1 28  1  0
  1 29  1  0
  1 30  1  0
  4 31  1  0
  5 32  1  0
  8 33  1  0
  9 34  1  0
 14 35  1  0
 15 36  1  0
 15 37  1  0
 17 38  1  0
 18 39  1  0
 20 40  1  0
 21 41  1  0
 23 42  1  0
 24 43  1  0
 27 44  1  0
 27 45  1  0
 27 46  1  0
M  END
>  <Energy>  (1038) 
103.65054035985624

>  <compound_id>  (1038) 
3827

>  <target_id>  (1038) 
1

>  <reference_id>  (1038) 
132

>  <inspiration_ids>  (1038) 
[132, 199]

>  <energy_score>  (1038) 
-23.94904116137684

>  <distance_score>  (1038) 
2.2786572193499994

>  <path>  (1038) 
/opt/xchem-fragalysis-2/maxwin/BulkDock/SCRATCH/505734/C3827-P132/C3827-P132.minimised.mol

>  <scratch_subdir>  (1038) 
/opt/xchem-fragalysis-2/maxwin/BulkDock/SCRATCH/505734/C3827-P132

>  <fragmenstein_runtime>  (1038) 
2.488896369934082

>  <fragmenstein_outcome>  (1038) 
too moved

>  <fragmenstein_mode>  (1038) 
expansion

>  <fragmenstein_error>  (1038) 


$$$$
C3827-P199
     RDKit          3D

 46 49  0  0  0  0  0  0  0  0999 V2000
    6.8201   -0.8037   34.2581 C   0  0  0  0  0  0  0  0  0  0  0  0
    5.5344   -0.8839   34.8727 O   0  0  0  0  0  0  0  0  0  0  0  0
    4.7674   -1.7800   34.1783 C   0  0  0  0  0  0  0  0  0  0  0  0
    4.0217   -1.2906   33.1028 C   0  0  0  0  0  0  0  0  0  0  0  0
    3.2540   -2.1649   32.3557 C   0  0  0  0  0  0  0  0  0  0  0  0
    3.2395   -3.5139   32.7069 C   0  0  0  0  0  0  0  0  0  0  0  0
    2.3747   -4.4280   31.9921 C   0  0  0  0  0  0  0  0  0  0  0  0
    2.4490   -4.7403   30.5647 C   0  0  0  0  0  0  0  0  0  0  0  0
    1.6429   -5.6659   30.0069 C   0  0  0  0  0  0  0  0  0  0  0  0
    0.6194   -6.2423   30.7985 C   0  0  0  0  0  0  0  0  0  0  0  0
   -0.3371   -7.1285   30.6200 N   0  0  0  0  0  0  0  0  0  0  0  0
   -1.2468   -6.8862   31.6373 N   0  0  0  0  0  0  0  0  0  0  0  0
   -0.8960   -5.7242   32.1852 C   0  0  0  0  0  0  0  0  0  0  0  0
   -1.5876   -4.5398   31.9870 N   0  0  0  0  0  0  0  0  0  0  0  0
   -1.1744   -3.1539   32.3075 C   0  0  0  0  0  0  0  0  0  0  0  0
   -1.2769   -2.2329   31.0757 C   0  0  0  0  0  0  0  0  0  0  0  0
   -0.6419   -2.5543   29.8726 C   0  0  0  0  0  0  0  0  0  0  0  0
   -0.7856   -1.7207   28.7704 C   0  0  0  0  0  0  0  0  0  0  0  0
   -1.4928   -0.5818   28.7772 N   0  0  0  0  0  0  0  0  0  0  0  0
   -2.0988   -0.2763   29.9313 C   0  0  0  0  0  0  0  0  0  0  0  0
   -2.0107   -1.0401   31.0924 C   0  0  0  0  0  0  0  0  0  0  0  0
    0.4589   -5.7131   32.0665 N   0  0  0  0  0  0  0  0  0  0  0  0
    1.3679   -4.9321   32.7178 C   0  0  0  0  0  0  0  0  0  0  0  0
    3.9688   -3.9968   33.8044 C   0  0  0  0  0  0  0  0  0  0  0  0
    4.7311   -3.1269   34.5632 C   0  0  0  0  0  0  0  0  0  0  0  0
    5.4565   -3.4840   35.6643 O   0  0  0  0  0  0  0  0  0  0  0  0
    5.5023   -4.8641   36.0034 C   0  0  0  0  0  0  0  0  0  0  0  0
    6.7515   -0.4032   33.2404 H   0  0  0  0  0  0  0  0  0  0  0  0
    7.3261   -1.7758   34.2523 H   0  0  0  0  0  0  0  0  0  0  0  0
    7.4290   -0.1130   34.8493 H   0  0  0  0  0  0  0  0  0  0  0  0
    4.0488   -0.2325   32.8581 H   0  0  0  0  0  0  0  0  0  0  0  0
    2.6621   -1.7871   31.5258 H   0  0  0  0  0  0  0  0  0  0  0  0
    3.2264   -4.2567   29.9782 H   0  0  0  0  0  0  0  0  0  0  0  0
    1.7505   -5.9408   28.9690 H   0  0  0  0  0  0  0  0  0  0  0  0
   -1.8342   -4.5063   30.9983 H   0  0  0  0  0  0  0  0  0  0  0  0
   -0.1744   -3.0553   32.7256 H   0  0  0  0  0  0  0  0  0  0  0  0
   -1.8643   -2.7829   33.0738 H   0  0  0  0  0  0  0  0  0  0  0  0
   -0.0565   -3.4558   29.7611 H   0  0  0  0  0  0  0  0  0  0  0  0
   -0.3109   -1.9533   27.8257 H   0  0  0  0  0  0  0  0  0  0  0  0
   -2.6969    0.6219   29.8912 H   0  0  0  0  0  0  0  0  0  0  0  0
   -2.5408   -0.7226   31.9840 H   0  0  0  0  0  0  0  0  0  0  0  0
    1.1458   -4.6713   33.7476 H   0  0  0  0  0  0  0  0  0  0  0  0
    3.9091   -5.0512   34.0515 H   0  0  0  0  0  0  0  0  0  0  0  0
    4.5108   -5.2336   36.2848 H   0  0  0  0  0  0  0  0  0  0  0  0
    6.1557   -4.9719   36.8746 H   0  0  0  0  0  0  0  0  0  0  0  0
    5.9323   -5.4586   35.1904 H   0  0  0  0  0  0  0  0  0  0  0  0
  1  2  1  0
  2  3  1  0
  3  4  2  0
  4  5  1  0
  5  6  2  0
  6  7  1  0
  7  8  1  0
  8  9  2  0
  9 10  1  0
 10 11  2  0
 11 12  1  0
 12 13  2  0
 13 14  1  0
 14 15  1  0
 15 16  1  0
 16 17  2  0
 17 18  1  0
 18 19  2  0
 19 20  1  0
 20 21  2  0
 13 22  1  0
 22 23  1  0
  6 24  1  0
 24 25  2  0
 25 26  1  0
 26 27  1  0
 25  3  1  0
 23  7  2  0
 22 10  1  0
 21 16  1  0
  1 28  1  0
  1 29  1  0
  1 30  1  0
  4 31  1  0
  5 32  1  0
  8 33  1  0
  9 34  1  0
 14 35  1  0
 15 36  1  0
 15 37  1  0
 17 38  1  0
 18 39  1  0
 20 40  1  0
 21 41  1  0
 23 42  1  0
 24 43  1  0
 27 44  1  0
 27 45  1  0
 27 46  1  0
M  END
>  <Energy>  (1039) 
138.11554577309983

>  <compound_id>  (1039) 
3827

>  <target_id>  (1039) 
1

>  <reference_id>  (1039) 
199

>  <inspiration_ids>  (1039) 
[132, 199]

>  <energy_score>  (1039) 
10.51596425186733

>  <distance_score>  (1039) 
1.7890662868718947

>  <path>  (1039) 
/opt/xchem-fragalysis-2/maxwin/BulkDock/SCRATCH/505734/C3827-P199/C3827-P199.minimised.mol

>  <scratch_subdir>  (1039) 
/opt/xchem-fragalysis-2/maxwin/BulkDock/SCRATCH/505734/C3827-P199

>  <fragmenstein_runtime>  (1039) 
1.8514223098754883

>  <fragmenstein_outcome>  (1039) 
too moved

>  <fragmenstein_mode>  (1039) 
expansion

>  <fragmenstein_error>  (1039) 


$$$$
C3829-P132
     RDKit          2D

  0  0  0  0  0  0  0  0  0  0999 V2000
M  END
>  <compound_id>  (1040) 
3829

>  <target_id>  (1040) 
1

>  <reference_id>  (1040) 
132

>  <inspiration_ids>  (1040) 
[132, 200]

>  <energy_score>  (1040) 
nan

>  <distance_score>  (1040) 
nan

>  <path>  (1040) 
/opt/xchem-fragalysis-2/maxwin/BulkDock/SCRATCH/505734/C3829-P132/C3829-P132.minimised.mol

>  <scratch_subdir>  (1040) 
/opt/xchem-fragalysis-2/maxwin/BulkDock/SCRATCH/505734/C3829-P132

>  <fragmenstein_runtime>  (1040) 
0.6623284816741943

>  <fragmenstein_outcome>  (1040) 
too distant

>  <fragmenstein_mode>  (1040) 
expansion

>  <fragmenstein_error>  (1040) 
DistanceError: hit1

$$$$
C3829-P132
     RDKit          3D

 47 51  0  0  0  0  0  0  0  0999 V2000
    6.5437   -0.7171   33.4004 C   0  0  0  0  0  0  0  0  0  0  0  0
    5.7994   -1.4074   34.3902 O   0  0  0  0  0  0  0  0  0  0  0  0
    4.5699   -1.8744   34.0226 C   0  0  0  0  0  0  0  0  0  0  0  0
    3.8696   -1.4878   32.8736 C   0  0  0  0  0  0  0  0  0  0  0  0
    2.6285   -2.0573   32.5723 C   0  0  0  0  0  0  0  0  0  0  0  0
    2.0624   -2.9856   33.4459 C   0  0  0  0  0  0  0  0  0  0  0  0
    0.8937   -3.8050   33.0661 C   0  0  0  0  0  0  0  0  0  0  0  0
   -0.2978   -3.2998   32.3976 C   0  0  0  0  0  0  0  0  0  0  0  0
   -1.1755   -4.1325   31.8060 C   0  0  0  0  0  0  0  0  0  0  0  0
   -1.0463   -5.5364   31.9856 C   0  0  0  0  0  0  0  0  0  0  0  0
   -1.5145   -6.6189   31.3973 N   0  0  0  0  0  0  0  0  0  0  0  0
   -1.2053   -7.6939   32.1938 N   0  0  0  0  0  0  0  0  0  0  0  0
   -0.4834   -7.2358   33.1914 C   0  0  0  0  0  0  0  0  0  0  0  0
   -0.2373   -7.8203   34.3796 N   0  0  0  0  0  0  0  0  0  0  0  0
   -0.0963   -5.9500   32.8795 N   0  0  0  0  0  0  0  0  0  0  0  0
    1.0092   -5.1536   33.1461 C   0  0  0  0  0  0  0  0  0  0  0  0
    2.5630   -5.8351   32.7327 S   0  0  0  0  0  0  0  0  0  0  0  0
    2.6992   -5.4178   30.9975 C   0  0  0  0  0  0  0  0  0  0  0  0
    3.8238   -4.8938   30.5947 N   0  0  0  0  0  0  0  0  0  0  0  0
    3.8463   -4.5724   29.2566 C   0  0  0  0  0  0  0  0  0  0  0  0
    4.7565   -4.8523   28.4926 O   0  0  0  0  0  0  0  0  0  0  0  0
    2.5797   -4.0058   28.8992 C   0  0  0  0  0  0  0  0  0  0  0  0
    2.2998   -2.4343   28.3805 S   0  0  0  0  0  0  0  0  0  0  0  0
    0.5919   -2.6849   28.5130 C   0  0  0  0  0  0  0  0  0  0  0  0
    0.2719   -3.9564   28.9487 C   0  0  0  0  0  0  0  0  0  0  0  0
    1.4402   -4.6286   29.3242 C   0  0  0  0  0  0  0  0  0  0  0  0
    1.5973   -5.6620   30.1793 N   0  0  0  0  0  0  0  0  0  0  0  0
    2.7199   -3.2940   34.6489 C   0  0  0  0  0  0  0  0  0  0  0  0
    3.9929   -2.8034   34.8907 C   0  0  0  0  0  0  0  0  0  0  0  0
    4.6566   -3.2627   36.0000 O   0  0  0  0  0  0  0  0  0  0  0  0
    5.4093   -4.4346   35.6709 C   0  0  0  0  0  0  0  0  0  0  0  0
    6.0946    0.2569   33.1808 H   0  0  0  0  0  0  0  0  0  0  0  0
    7.5462   -0.5363   33.8002 H   0  0  0  0  0  0  0  0  0  0  0  0
    6.6530   -1.3154   32.4894 H   0  0  0  0  0  0  0  0  0  0  0  0
    4.2798   -0.7636   32.1770 H   0  0  0  0  0  0  0  0  0  0  0  0
    2.1416   -1.7952   31.6373 H   0  0  0  0  0  0  0  0  0  0  0  0
   -0.4090   -2.2226   32.2963 H   0  0  0  0  0  0  0  0  0  0  0  0
   -1.9910   -3.7162   31.2280 H   0  0  0  0  0  0  0  0  0  0  0  0
   -0.1697   -7.2390   35.2103 H   0  0  0  0  0  0  0  0  0  0  0  0
   -0.8264   -8.6484   34.5651 H   0  0  0  0  0  0  0  0  0  0  0  0
   -0.0879   -1.8915   28.2240 H   0  0  0  0  0  0  0  0  0  0  0  0
   -0.7496   -4.2804   29.0852 H   0  0  0  0  0  0  0  0  0  0  0  0
    0.7985   -6.1481   30.5673 H   0  0  0  0  0  0  0  0  0  0  0  0
    2.2933   -3.9964   35.3611 H   0  0  0  0  0  0  0  0  0  0  0  0
    6.1225   -4.2403   34.8622 H   0  0  0  0  0  0  0  0  0  0  0  0
    5.9761   -4.7270   36.5597 H   0  0  0  0  0  0  0  0  0  0  0  0
    4.7458   -5.2640   35.4039 H   0  0  0  0  0  0  0  0  0  0  0  0
  1  2  1  0
  2  3  1  0
  3  4  2  0
  4  5  1  0
  5  6  2  0
  6  7  1  0
  7  8  1  0
  8  9  2  0
  9 10  1  0
 10 11  2  0
 11 12  1  0
 12 13  2  0
 13 14  1  0
 13 15  1  0
 15 16  1  0
 16 17  1  0
 17 18  1  0
 18 19  2  0
 19 20  1  0
 20 21  2  0
 20 22  1  0
 22 23  1  0
 23 24  1  0
 24 25  2  0
 25 26  1  0
 26 27  1  0
  6 28  1  0
 28 29  2  0
 29 30  1  0
 30 31  1  0
 29  3  1  0
 16  7  2  0
 27 18  1  0
 15 10  1  0
 26 22  2  0
  1 32  1  0
  1 33  1  0
  1 34  1  0
  4 35  1  0
  5 36  1  0
  8 37  1  0
  9 38  1  0
 14 39  1  0
 14 40  1  0
 24 41  1  0
 25 42  1  0
 27 43  1  0
 28 44  1  0
 31 45  1  0
 31 46  1  0
 31 47  1  0
M  END
>  <Energy>  (1041) 
95.398302680620105

>  <compound_id>  (1041) 
3829

>  <target_id>  (1041) 
1

>  <reference_id>  (1041) 
132

>  <inspiration_ids>  (1041) 
[132, 201]

>  <energy_score>  (1041) 
-6.990756291775028

>  <distance_score>  (1041) 
1.9504575144565583

>  <path>  (1041) 
/opt/xchem-fragalysis-2/maxwin/BulkDock/SCRATCH/505734/C3829-P132/C3829-P132.minimised.mol

>  <scratch_subdir>  (1041) 
/opt/xchem-fragalysis-2/maxwin/BulkDock/SCRATCH/505734/C3829-P132

>  <fragmenstein_runtime>  (1041) 
2.8978841304779053

>  <fragmenstein_outcome>  (1041) 
too moved

>  <fragmenstein_mode>  (1041) 
expansion

>  <fragmenstein_error>  (1041) 


$$$$
C3829-P201
     RDKit          3D

 47 51  0  0  0  0  0  0  0  0999 V2000
    6.5907   -0.6813   33.4586 C   0  0  0  0  0  0  0  0  0  0  0  0
    5.8450   -1.4384   34.3970 O   0  0  0  0  0  0  0  0  0  0  0  0
    4.6424   -1.9311   33.9781 C   0  0  0  0  0  0  0  0  0  0  0  0
    3.9816   -1.5575   32.8012 C   0  0  0  0  0  0  0  0  0  0  0  0
    2.7619   -2.1448   32.4536 C   0  0  0  0  0  0  0  0  0  0  0  0
    2.1777   -3.0773   33.3096 C   0  0  0  0  0  0  0  0  0  0  0  0
    0.9964   -3.8642   32.9173 C   0  0  0  0  0  0  0  0  0  0  0  0
   -0.2141   -3.2976   32.3459 C   0  0  0  0  0  0  0  0  0  0  0  0
   -1.1598   -4.0779   31.7926 C   0  0  0  0  0  0  0  0  0  0  0  0
   -1.0692   -5.4894   31.9127 C   0  0  0  0  0  0  0  0  0  0  0  0
   -1.6080   -6.5306   31.3105 N   0  0  0  0  0  0  0  0  0  0  0  0
   -1.2817   -7.6470   32.0489 N   0  0  0  0  0  0  0  0  0  0  0  0
   -0.4958   -7.2469   33.0245 C   0  0  0  0  0  0  0  0  0  0  0  0
   -0.2276   -7.8607   34.1934 N   0  0  0  0  0  0  0  0  0  0  0  0
   -0.0715   -5.9691   32.7251 N   0  0  0  0  0  0  0  0  0  0  0  0
    1.0776   -5.2162   32.9572 C   0  0  0  0  0  0  0  0  0  0  0  0
    2.6178   -5.9296   32.5346 S   0  0  0  0  0  0  0  0  0  0  0  0
    2.7303   -5.6003   30.7832 C   0  0  0  0  0  0  0  0  0  0  0  0
    3.9002   -5.2974   30.2964 N   0  0  0  0  0  0  0  0  0  0  0  0
    3.9253   -5.0594   28.9368 C   0  0  0  0  0  0  0  0  0  0  0  0
    4.7916   -5.4878   28.1914 O   0  0  0  0  0  0  0  0  0  0  0  0
    2.7332   -4.3646   28.5433 C   0  0  0  0  0  0  0  0  0  0  0  0
    2.6337   -2.9621   27.6294 S   0  0  0  0  0  0  0  0  0  0  0  0
    0.9668   -2.7937   28.0610 C   0  0  0  0  0  0  0  0  0  0  0  0
    0.4776   -3.8841   28.7508 C   0  0  0  0  0  0  0  0  0  0  0  0
    1.5399   -4.7248   29.1009 C   0  0  0  0  0  0  0  0  0  0  0  0
    1.5687   -5.6970   30.0307 N   0  0  0  0  0  0  0  0  0  0  0  0
    2.8010   -3.3921   34.5278 C   0  0  0  0  0  0  0  0  0  0  0  0
    4.0526   -2.8765   34.8201 C   0  0  0  0  0  0  0  0  0  0  0  0
    4.6776   -3.3186   35.9580 O   0  0  0  0  0  0  0  0  0  0  0  0
    5.4606   -4.4795   35.6656 C   0  0  0  0  0  0  0  0  0  0  0  0
    6.1021    0.2759   33.2493 H   0  0  0  0  0  0  0  0  0  0  0  0
    7.5666   -0.4636   33.9035 H   0  0  0  0  0  0  0  0  0  0  0  0
    6.7657   -1.2455   32.5362 H   0  0  0  0  0  0  0  0  0  0  0  0
    4.4053   -0.8253   32.1212 H   0  0  0  0  0  0  0  0  0  0  0  0
    2.3009   -1.8858   31.5037 H   0  0  0  0  0  0  0  0  0  0  0  0
   -0.3013   -2.2143   32.3017 H   0  0  0  0  0  0  0  0  0  0  0  0
   -2.0072   -3.6088   31.3117 H   0  0  0  0  0  0  0  0  0  0  0  0
   -0.1144   -7.2968   35.0320 H   0  0  0  0  0  0  0  0  0  0  0  0
   -0.8483   -8.6584   34.4133 H   0  0  0  0  0  0  0  0  0  0  0  0
    0.4217   -1.9127   27.7436 H   0  0  0  0  0  0  0  0  0  0  0  0
   -0.5565   -3.9623   29.0578 H   0  0  0  0  0  0  0  0  0  0  0  0
    0.7192   -6.0230   30.4671 H   0  0  0  0  0  0  0  0  0  0  0  0
    2.3562   -4.1002   35.2229 H   0  0  0  0  0  0  0  0  0  0  0  0
    6.2156   -4.2705   34.8997 H   0  0  0  0  0  0  0  0  0  0  0  0
    5.9803   -4.7712   36.5831 H   0  0  0  0  0  0  0  0  0  0  0  0
    4.8243   -5.3157   35.3559 H   0  0  0  0  0  0  0  0  0  0  0  0
  1  2  1  0
  2  3  1  0
  3  4  2  0
  4  5  1  0
  5  6  2  0
  6  7  1  0
  7  8  1  0
  8  9  2  0
  9 10  1  0
 10 11  2  0
 11 12  1  0
 12 13  2  0
 13 14  1  0
 13 15  1  0
 15 16  1  0
 16 17  1  0
 17 18  1  0
 18 19  2  0
 19 20  1  0
 20 21  2  0
 20 22  1  0
 22 23  1  0
 23 24  1  0
 24 25  2  0
 25 26  1  0
 26 27  1  0
  6 28  1  0
 28 29  2  0
 29 30  1  0
 30 31  1  0
 29  3  1  0
 16  7  2  0
 27 18  1  0
 15 10  1  0
 26 22  2  0
  1 32  1  0
  1 33  1  0
  1 34  1  0
  4 35  1  0
  5 36  1  0
  8 37  1  0
  9 38  1  0
 14 39  1  0
 14 40  1  0
 24 41  1  0
 25 42  1  0
 27 43  1  0
 28 44  1  0
 31 45  1  0
 31 46  1  0
 31 47  1  0
M  END
>  <Energy>  (1042) 
88.236479358312181

>  <compound_id>  (1042) 
3829

>  <target_id>  (1042) 
1

>  <reference_id>  (1042) 
201

>  <inspiration_ids>  (1042) 
[132, 201]

>  <energy_score>  (1042) 
-14.152579614084402

>  <distance_score>  (1042) 
1.9147016636609986

>  <path>  (1042) 
/opt/xchem-fragalysis-2/maxwin/BulkDock/SCRATCH/505734/C3829-P201/C3829-P201.minimised.mol

>  <scratch_subdir>  (1042) 
/opt/xchem-fragalysis-2/maxwin/BulkDock/SCRATCH/505734/C3829-P201

>  <fragmenstein_runtime>  (1042) 
3.762521743774414

>  <fragmenstein_outcome>  (1042) 
too moved

>  <fragmenstein_mode>  (1042) 
expansion

>  <fragmenstein_error>  (1042) 


$$$$
C3852-P132
     RDKit          3D

 51 54  0  0  0  0  0  0  0  0999 V2000
    6.4317   -1.3152   33.8385 C   0  0  0  0  0  0  0  0  0  0  0  0
    5.1188   -1.1731   34.3767 O   0  0  0  0  0  0  0  0  0  0  0  0
    4.2506   -2.0151   33.7302 C   0  0  0  0  0  0  0  0  0  0  0  0
    3.6256   -1.5560   32.5690 C   0  0  0  0  0  0  0  0  0  0  0  0
    2.7176   -2.3720   31.8985 C   0  0  0  0  0  0  0  0  0  0  0  0
    2.3826   -3.6176   32.4259 C   0  0  0  0  0  0  0  0  0  0  0  0
    1.4468   -4.5239   31.7365 C   0  0  0  0  0  0  0  0  0  0  0  0
    1.8774   -5.3681   30.6256 C   0  0  0  0  0  0  0  0  0  0  0  0
    1.1227   -6.3877   30.1795 C   0  0  0  0  0  0  0  0  0  0  0  0
   -0.0228   -6.7852   30.9069 C   0  0  0  0  0  0  0  0  0  0  0  0
   -0.8135   -7.8325   30.8452 N   0  0  0  0  0  0  0  0  0  0  0  0
   -1.5204   -7.8677   32.0243 N   0  0  0  0  0  0  0  0  0  0  0  0
   -1.1883   -6.8092   32.7338 C   0  0  0  0  0  0  0  0  0  0  0  0
   -1.3932   -6.6110   34.0559 N   0  0  0  0  0  0  0  0  0  0  0  0
   -0.4055   -5.9710   31.9564 N   0  0  0  0  0  0  0  0  0  0  0  0
    0.2086   -4.7516   32.2338 C   0  0  0  0  0  0  0  0  0  0  0  0
   -0.8308   -3.3570   32.4423 S   0  0  0  0  0  0  0  0  0  0  0  0
   -0.5366   -2.7194   33.7067 O   0  0  0  0  0  0  0  0  0  0  0  0
   -2.1928   -3.7368   32.1143 O   0  0  0  0  0  0  0  0  0  0  0  0
   -0.4158   -2.2295   31.2046 N   0  0  0  0  0  0  0  0  0  0  0  0
   -0.7111   -0.8016   31.5519 C   0  0  0  0  0  0  0  0  0  0  0  0
   -0.7094    0.1198   30.3118 C   0  0  0  0  0  0  0  0  0  0  0  0
    0.2039   -0.3197   29.2525 N   0  0  0  0  0  0  0  0  0  0  0  0
   -0.2002   -1.6567   28.7768 C   0  0  0  0  0  0  0  0  0  0  0  0
   -0.8806   -2.5704   29.8209 C   0  0  0  0  0  0  0  0  0  0  0  0
    3.0148   -4.0718   33.6046 C   0  0  0  0  0  0  0  0  0  0  0  0
    3.9677   -3.2820   34.2527 C   0  0  0  0  0  0  0  0  0  0  0  0
    4.6464   -3.6466   35.3855 O   0  0  0  0  0  0  0  0  0  0  0  0
    4.8328   -5.0409   35.5923 C   0  0  0  0  0  0  0  0  0  0  0  0
    6.7946   -2.3447   33.9334 H   0  0  0  0  0  0  0  0  0  0  0  0
    7.1011   -0.6671   34.4122 H   0  0  0  0  0  0  0  0  0  0  0  0
    6.4667   -0.9949   32.7915 H   0  0  0  0  0  0  0  0  0  0  0  0
    3.8546   -0.5649   32.1869 H   0  0  0  0  0  0  0  0  0  0  0  0
    2.2662   -2.0175   30.9771 H   0  0  0  0  0  0  0  0  0  0  0  0
    2.8040   -5.1068   30.1196 H   0  0  0  0  0  0  0  0  0  0  0  0
    1.4530   -6.9890   29.3449 H   0  0  0  0  0  0  0  0  0  0  0  0
   -1.9118   -7.3696   34.4954 H   0  0  0  0  0  0  0  0  0  0  0  0
   -1.7797   -5.7048   34.3413 H   0  0  0  0  0  0  0  0  0  0  0  0
    0.0697   -0.4641   32.2432 H   0  0  0  0  0  0  0  0  0  0  0  0
   -1.6824   -0.7209   32.0528 H   0  0  0  0  0  0  0  0  0  0  0  0
   -0.4324    1.1319   30.6233 H   0  0  0  0  0  0  0  0  0  0  0  0
   -1.7252    0.1930   29.9043 H   0  0  0  0  0  0  0  0  0  0  0  0
    1.1352   -0.3997   29.6585 H   0  0  0  0  0  0  0  0  0  0  0  0
   -0.8775   -1.5369   27.9255 H   0  0  0  0  0  0  0  0  0  0  0  0
    0.6980   -2.1572   28.3977 H   0  0  0  0  0  0  0  0  0  0  0  0
   -0.6518   -3.6137   29.5845 H   0  0  0  0  0  0  0  0  0  0  0  0
   -1.9644   -2.4386   29.7707 H   0  0  0  0  0  0  0  0  0  0  0  0
    2.7473   -5.0445   34.0059 H   0  0  0  0  0  0  0  0  0  0  0  0
    5.2042   -5.5367   34.6887 H   0  0  0  0  0  0  0  0  0  0  0  0
    3.9056   -5.5069   35.9402 H   0  0  0  0  0  0  0  0  0  0  0  0
    5.5848   -5.1663   36.3771 H   0  0  0  0  0  0  0  0  0  0  0  0
  1  2  1  0
  2  3  1  0
  3  4  2  0
  4  5  1  0
  5  6  2  0
  6  7  1  0
  7  8  1  0
  8  9  2  0
  9 10  1  0
 10 11  2  0
 11 12  1  0
 12 13  2  0
 13 14  1  0
 13 15  1  0
 15 16  1  0
 16 17  1  0
 17 18  2  0
 17 19  2  0
 17 20  1  0
 20 21  1  0
 21 22  1  0
 22 23  1  0
 23 24  1  0
 24 25  1  0
  6 26  1  0
 26 27  2  0
 27 28  1  0
 28 29  1  0
 27  3  1  0
 16  7  2  0
 25 20  1  0
 15 10  1  0
  1 30  1  0
  1 31  1  0
  1 32  1  0
  4 33  1  0
  5 34  1  0
  8 35  1  0
  9 36  1  0
 14 37  1  0
 14 38  1  0
 21 39  1  0
 21 40  1  0
 22 41  1  0
 22 42  1  0
 23 43  1  0
 24 44  1  0
 24 45  1  0
 25 46  1  0
 25 47  1  0
 26 48  1  0
 29 49  1  0
 29 50  1  0
 29 51  1  0
M  END
>  <Energy>  (1043) 
67.852274724934674

>  <compound_id>  (1043) 
3852

>  <target_id>  (1043) 
1

>  <reference_id>  (1043) 
132

>  <inspiration_ids>  (1043) 
[132, 202]

>  <energy_score>  (1043) 
-65.53096771518028

>  <distance_score>  (1043) 
0.8951469106446946

>  <path>  (1043) 
/opt/xchem-fragalysis-2/maxwin/BulkDock/SCRATCH/505734/C3852-P132/C3852-P132.minimised.mol

>  <scratch_subdir>  (1043) 
/opt/xchem-fragalysis-2/maxwin/BulkDock/SCRATCH/505734/C3852-P132

>  <fragmenstein_runtime>  (1043) 
4.948983192443848

>  <fragmenstein_outcome>  (1043) 
acceptable

>  <fragmenstein_mode>  (1043) 
expansion

>  <fragmenstein_error>  (1043) 


$$$$
C3852-P202
     RDKit          3D

 51 54  0  0  0  0  0  0  0  0999 V2000
    6.2051   -0.7310   33.7368 C   0  0  0  0  0  0  0  0  0  0  0  0
    5.3359   -1.5799   34.4737 O   0  0  0  0  0  0  0  0  0  0  0  0
    4.3639   -2.2224   33.7557 C   0  0  0  0  0  0  0  0  0  0  0  0
    3.8694   -1.7865   32.5213 C   0  0  0  0  0  0  0  0  0  0  0  0
    2.8828   -2.5180   31.8483 C   0  0  0  0  0  0  0  0  0  0  0  0
    2.3520   -3.6721   32.4215 C   0  0  0  0  0  0  0  0  0  0  0  0
    1.4085   -4.5389   31.6947 C   0  0  0  0  0  0  0  0  0  0  0  0
    1.8274   -5.3555   30.5587 C   0  0  0  0  0  0  0  0  0  0  0  0
    1.0749   -6.3733   30.1045 C   0  0  0  0  0  0  0  0  0  0  0  0
   -0.0547   -6.7937   30.8437 C   0  0  0  0  0  0  0  0  0  0  0  0
   -0.8335   -7.8499   30.7770 N   0  0  0  0  0  0  0  0  0  0  0  0
   -1.5224   -7.9108   31.9658 N   0  0  0  0  0  0  0  0  0  0  0  0
   -1.1932   -6.8593   32.6875 C   0  0  0  0  0  0  0  0  0  0  0  0
   -1.3898   -6.6811   34.0132 N   0  0  0  0  0  0  0  0  0  0  0  0
   -0.4304   -6.0000   31.9128 N   0  0  0  0  0  0  0  0  0  0  0  0
    0.1809   -4.7831   32.2064 C   0  0  0  0  0  0  0  0  0  0  0  0
   -0.8561   -3.3838   32.4092 S   0  0  0  0  0  0  0  0  0  0  0  0
   -0.5816   -2.7589   33.6844 O   0  0  0  0  0  0  0  0  0  0  0  0
   -2.2123   -3.7587   32.0528 O   0  0  0  0  0  0  0  0  0  0  0  0
   -0.4119   -2.2446   31.1897 N   0  0  0  0  0  0  0  0  0  0  0  0
   -0.7021   -0.8174   31.5503 C   0  0  0  0  0  0  0  0  0  0  0  0
   -0.6985    0.1141   30.3166 C   0  0  0  0  0  0  0  0  0  0  0  0
    0.2358   -0.3168   29.2696 N   0  0  0  0  0  0  0  0  0  0  0  0
   -0.1694   -1.6466   28.7714 C   0  0  0  0  0  0  0  0  0  0  0  0
   -0.8711   -2.5643   29.7980 C   0  0  0  0  0  0  0  0  0  0  0  0
    2.8231   -4.0954   33.6754 C   0  0  0  0  0  0  0  0  0  0  0  0
    3.8333   -3.3856   34.3240 C   0  0  0  0  0  0  0  0  0  0  0  0
    4.2549   -3.8409   35.5487 O   0  0  0  0  0  0  0  0  0  0  0  0
    5.3993   -4.6818   35.4053 C   0  0  0  0  0  0  0  0  0  0  0  0
    7.0446   -0.4668   34.3871 H   0  0  0  0  0  0  0  0  0  0  0  0
    5.6969    0.1975   33.4578 H   0  0  0  0  0  0  0  0  0  0  0  0
    6.6133   -1.2372   32.8552 H   0  0  0  0  0  0  0  0  0  0  0  0
    4.2373   -0.8778   32.0550 H   0  0  0  0  0  0  0  0  0  0  0  0
    2.5390   -2.1758   30.8754 H   0  0  0  0  0  0  0  0  0  0  0  0
    2.7472   -5.0834   30.0458 H   0  0  0  0  0  0  0  0  0  0  0  0
    1.4011   -6.9565   29.2546 H   0  0  0  0  0  0  0  0  0  0  0  0
   -1.8980   -7.4470   34.4516 H   0  0  0  0  0  0  0  0  0  0  0  0
   -1.7540   -5.7748   34.3246 H   0  0  0  0  0  0  0  0  0  0  0  0
    0.0821   -0.4904   32.2431 H   0  0  0  0  0  0  0  0  0  0  0  0
   -1.6724   -0.7367   32.0528 H   0  0  0  0  0  0  0  0  0  0  0  0
   -0.4387    1.1288   30.6367 H   0  0  0  0  0  0  0  0  0  0  0  0
   -1.7098    0.1776   29.8956 H   0  0  0  0  0  0  0  0  0  0  0  0
    1.1537   -0.4163   29.7022 H   0  0  0  0  0  0  0  0  0  0  0  0
   -0.8325   -1.5141   27.9107 H   0  0  0  0  0  0  0  0  0  0  0  0
    0.7312   -2.1491   28.4004 H   0  0  0  0  0  0  0  0  0  0  0  0
   -0.6556   -3.6077   29.5505 H   0  0  0  0  0  0  0  0  0  0  0  0
   -1.9533   -2.4164   29.7405 H   0  0  0  0  0  0  0  0  0  0  0  0
    2.4288   -4.9914   34.1486 H   0  0  0  0  0  0  0  0  0  0  0  0
    6.2493   -4.1323   34.9870 H   0  0  0  0  0  0  0  0  0  0  0  0
    5.1710   -5.5564   34.7858 H   0  0  0  0  0  0  0  0  0  0  0  0
    5.6819   -5.0362   36.4010 H   0  0  0  0  0  0  0  0  0  0  0  0
  1  2  1  0
  2  3  1  0
  3  4  2  0
  4  5  1  0
  5  6  2  0
  6  7  1  0
  7  8  1  0
  8  9  2  0
  9 10  1  0
 10 11  2  0
 11 12  1  0
 12 13  2  0
 13 14  1  0
 13 15  1  0
 15 16  1  0
 16 17  1  0
 17 18  2  0
 17 19  2  0
 17 20  1  0
 20 21  1  0
 21 22  1  0
 22 23  1  0
 23 24  1  0
 24 25  1  0
  6 26  1  0
 26 27  2  0
 27 28  1  0
 28 29  1  0
 27  3  1  0
 16  7  2  0
 25 20  1  0
 15 10  1  0
  1 30  1  0
  1 31  1  0
  1 32  1  0
  4 33  1  0
  5 34  1  0
  8 35  1  0
  9 36  1  0
 14 37  1  0
 14 38  1  0
 21 39  1  0
 21 40  1  0
 22 41  1  0
 22 42  1  0
 23 43  1  0
 24 44  1  0
 24 45  1  0
 25 46  1  0
 25 47  1  0
 26 48  1  0
 29 49  1  0
 29 50  1  0
 29 51  1  0
M  END
>  <Energy>  (1044) 
68.975279997061193

>  <compound_id>  (1044) 
3852

>  <target_id>  (1044) 
1

>  <reference_id>  (1044) 
202

>  <inspiration_ids>  (1044) 
[132, 202]

>  <energy_score>  (1044) 
-64.40796244305255

>  <distance_score>  (1044) 
0.8867506829844103

>  <path>  (1044) 
/opt/xchem-fragalysis-2/maxwin/BulkDock/SCRATCH/505734/C3852-P202/C3852-P202.minimised.mol

>  <scratch_subdir>  (1044) 
/opt/xchem-fragalysis-2/maxwin/BulkDock/SCRATCH/505734/C3852-P202

>  <fragmenstein_runtime>  (1044) 
4.663424015045166

>  <fragmenstein_outcome>  (1044) 
acceptable

>  <fragmenstein_mode>  (1044) 
expansion

>  <fragmenstein_error>  (1044) 


$$$$
C3831-P133
     RDKit          3D

 70 75  0  0  0  0  0  0  0  0999 V2000
    4.6498    0.1090   35.6575 C   0  0  0  0  0  0  0  0  0  0  0  0
    3.4532   -0.3321   36.3024 O   0  0  0  0  0  0  0  0  0  0  0  0
    3.0041   -1.5305   35.8190 C   0  0  0  0  0  0  0  0  0  0  0  0
    1.6743   -1.5626   35.4080 C   0  0  0  0  0  0  0  0  0  0  0  0
    1.1534   -2.7165   34.8218 C   0  0  0  0  0  0  0  0  0  0  0  0
    1.9616   -3.8474   34.6433 C   0  0  0  0  0  0  0  0  0  0  0  0
    1.4973   -4.9335   33.7723 C   0  0  0  0  0  0  0  0  0  0  0  0
    2.0997   -5.1227   32.4580 C   0  0  0  0  0  0  0  0  0  0  0  0
    1.4845   -5.7416   31.4325 C   0  0  0  0  0  0  0  0  0  0  0  0
    1.9754   -5.7162   30.1271 N   0  0  0  0  0  0  0  0  0  0  0  0
    2.9558   -4.7709   29.5386 C   0  0  0  0  0  0  0  0  0  0  0  0
    2.6278   -3.2492   29.5977 C   0  0  0  0  0  0  0  0  0  0  0  0
    3.6049   -2.3458   30.9014 S   0  0  0  0  0  0  0  0  0  0  0  0
    3.1415   -2.4722   28.0383 Cl  0  0  0  0  0  0  0  0  0  0  0  0
    1.0958   -3.0336   29.7034 C   0  0  0  0  0  0  0  0  0  0  0  0
    0.3918   -3.7708   29.0700 O   0  0  0  0  0  0  0  0  0  0  0  0
    0.7635   -1.9506   30.5919 N   0  0  0  0  0  0  0  0  0  0  0  0
   -0.5181   -1.3503   30.9244 C   0  0  0  0  0  0  0  0  0  0  0  0
   -1.0522   -0.6788   29.6227 C   0  0  0  0  0  0  0  0  0  0  0  0
   -1.6117   -1.3943   28.6477 N   0  0  0  0  0  0  0  0  0  0  0  0
   -1.5623   -0.5417   27.6168 N   0  0  0  0  0  0  0  0  0  0  0  0
   -1.0895    0.6722   28.0272 C   0  0  0  0  0  0  0  0  0  0  0  0
   -0.9984    1.8440   27.2302 C   0  0  0  0  0  0  0  0  0  0  0  0
   -0.0326    2.8238   27.3319 C   0  0  0  0  0  0  0  0  0  0  0  0
   -0.2589    3.8971   26.4254 C   0  0  0  0  0  0  0  0  0  0  0  0
   -1.4010    3.7063   25.6802 C   0  0  0  0  0  0  0  0  0  0  0  0
   -2.1808    2.2357   26.0638 S   0  0  0  0  0  0  0  0  0  0  0  0
   -0.7026    0.5958   29.2822 N   0  0  0  0  0  0  0  0  0  0  0  0
   -1.5046   -2.2804   31.6693 C   0  0  0  0  0  0  0  0  0  0  0  0
   -1.8736   -1.0821   32.5650 C   0  0  0  0  0  0  0  0  0  0  0  0
   -0.5237   -0.4459   32.1768 C   0  0  0  0  0  0  0  0  0  0  0  0
    0.2984   -6.4949   31.7664 C   0  0  0  0  0  0  0  0  0  0  0  0
   -0.4844   -7.2906   31.0645 N   0  0  0  0  0  0  0  0  0  0  0  0
   -1.3771   -7.8805   31.9382 N   0  0  0  0  0  0  0  0  0  0  0  0
   -1.1320   -7.4314   33.1507 C   0  0  0  0  0  0  0  0  0  0  0  0
   -1.6837   -7.8312   34.3242 N   0  0  0  0  0  0  0  0  0  0  0  0
   -0.1255   -6.4913   33.0897 N   0  0  0  0  0  0  0  0  0  0  0  0
    0.4168   -5.6720   34.0762 C   0  0  0  0  0  0  0  0  0  0  0  0
    3.2711   -3.8386   35.1250 C   0  0  0  0  0  0  0  0  0  0  0  0
    3.7749   -2.6942   35.7423 C   0  0  0  0  0  0  0  0  0  0  0  0
    5.0596   -2.7588   36.2076 O   0  0  0  0  0  0  0  0  0  0  0  0
    5.0509   -2.8950   37.6301 C   0  0  0  0  0  0  0  0  0  0  0  0
    5.5299   -0.2549   36.1950 H   0  0  0  0  0  0  0  0  0  0  0  0
    4.6646    1.2024   35.7019 H   0  0  0  0  0  0  0  0  0  0  0  0
    4.6911   -0.1823   34.6014 H   0  0  0  0  0  0  0  0  0  0  0  0
    1.0542   -0.6757   35.5099 H   0  0  0  0  0  0  0  0  0  0  0  0
    0.1268   -2.7072   34.4616 H   0  0  0  0  0  0  0  0  0  0  0  0
    3.0807   -4.6878   32.3237 H   0  0  0  0  0  0  0  0  0  0  0  0
    1.1763   -5.8542   29.4852 H   0  0  0  0  0  0  0  0  0  0  0  0
    3.0397   -5.0815   28.4888 H   0  0  0  0  0  0  0  0  0  0  0  0
    3.9468   -4.9656   29.9631 H   0  0  0  0  0  0  0  0  0  0  0  0
    2.8388   -2.6770   31.9499 H   0  0  0  0  0  0  0  0  0  0  0  0
    1.6190   -1.4918   30.8880 H   0  0  0  0  0  0  0  0  0  0  0  0
   -1.8314   -0.8554   26.6855 H   0  0  0  0  0  0  0  0  0  0  0  0
    0.7849    2.7794   28.0413 H   0  0  0  0  0  0  0  0  0  0  0  0
    0.3606    4.7817   26.3472 H   0  0  0  0  0  0  0  0  0  0  0  0
   -1.8359    4.3731   24.9475 H   0  0  0  0  0  0  0  0  0  0  0  0
   -2.3330   -2.6961   31.0902 H   0  0  0  0  0  0  0  0  0  0  0  0
   -1.0265   -3.1022   32.2159 H   0  0  0  0  0  0  0  0  0  0  0  0
   -2.7445   -0.5201   32.2094 H   0  0  0  0  0  0  0  0  0  0  0  0
   -2.0057   -1.3059   33.6265 H   0  0  0  0  0  0  0  0  0  0  0  0
    0.2841   -0.6549   32.8850 H   0  0  0  0  0  0  0  0  0  0  0  0
   -0.5542    0.6350   32.0128 H   0  0  0  0  0  0  0  0  0  0  0  0
   -1.0866   -7.8297   35.1476 H   0  0  0  0  0  0  0  0  0  0  0  0
   -2.0589   -8.7887   34.2694 H   0  0  0  0  0  0  0  0  0  0  0  0
   -0.1124   -5.6196   35.0204 H   0  0  0  0  0  0  0  0  0  0  0  0
    3.9164   -4.7047   35.0038 H   0  0  0  0  0  0  0  0  0  0  0  0
    4.6718   -1.9907   38.1174 H   0  0  0  0  0  0  0  0  0  0  0  0
    6.0847   -3.0436   37.9562 H   0  0  0  0  0  0  0  0  0  0  0  0
    4.4692   -3.7697   37.9429 H   0  0  0  0  0  0  0  0  0  0  0  0
  1  2  1  0
  2  3  1  0
  3  4  2  0
  4  5  1  0
  5  6  2  0
  6  7  1  0
  7  8  1  0
  8  9  2  0
  9 10  1  0
 10 11  1  0
 11 12  1  0
 12 13  1  0
 12 14  1  0
 12 15  1  0
 15 16  2  0
 15 17  1  0
 17 18  1  0
 18 19  1  0
 19 20  2  0
 20 21  1  0
 21 22  1  0
 22 23  1  0
 23 24  2  0
 24 25  1  0
 25 26  2  0
 26 27  1  0
 22 28  2  0
 18 29  1  0
 29 30  1  0
 30 31  1  0
  9 32  1  0
 32 33  2  0
 33 34  1  0
 34 35  2  0
 35 36  1  0
 35 37  1  0
 37 38  1  0
  6 39  1  0
 39 40  2  0
 40 41  1  0
 41 42  1  0
 40  3  1  0
 38  7  2  0
 31 18  1  0
 37 32  1  0
 28 19  1  0
 27 23  1  0
  1 43  1  0
  1 44  1  0
  1 45  1  0
  4 46  1  0
  5 47  1  0
  8 48  1  0
 10 49  1  0
 11 50  1  0
 11 51  1  0
 13 52  1  0
 17 53  1  0
 21 54  1  0
 24 55  1  0
 25 56  1  0
 26 57  1  0
 29 58  1  0
 29 59  1  0
 30 60  1  0
 30 61  1  0
 31 62  1  0
 31 63  1  0
 36 64  1  0
 36 65  1  0
 38 66  1  0
 39 67  1  0
 42 68  1  0
 42 69  1  0
 42 70  1  0
M  END
>  <Energy>  (1045) 
208.61364316204609

>  <compound_id>  (1045) 
3831

>  <target_id>  (1045) 
1

>  <reference_id>  (1045) 
133

>  <inspiration_ids>  (1045) 
[133, 13]

>  <energy_score>  (1045) 
-175.53716129347367

>  <distance_score>  (1045) 
2.118218778253423

>  <path>  (1045) 
/opt/xchem-fragalysis-2/maxwin/BulkDock/SCRATCH/505734/C3831-P133/C3831-P133.minimised.mol

>  <scratch_subdir>  (1045) 
/opt/xchem-fragalysis-2/maxwin/BulkDock/SCRATCH/505734/C3831-P133

>  <fragmenstein_runtime>  (1045) 
27.78680729866028

>  <fragmenstein_outcome>  (1045) 
too moved

>  <fragmenstein_mode>  (1045) 
expansion

>  <fragmenstein_error>  (1045) 


$$$$
C3831-P13
     RDKit          3D

 70 75  0  0  0  0  0  0  0  0999 V2000
    4.9570    0.2240   34.9615 C   0  0  0  0  0  0  0  0  0  0  0  0
    3.9568   -0.5115   35.6531 O   0  0  0  0  0  0  0  0  0  0  0  0
    3.5365   -1.6742   35.0771 C   0  0  0  0  0  0  0  0  0  0  0  0
    3.7966   -2.0465   33.7779 C   0  0  0  0  0  0  0  0  0  0  0  0
    3.2987   -3.2636   33.3112 C   0  0  0  0  0  0  0  0  0  0  0  0
    2.4404   -4.1027   34.0509 C   0  0  0  0  0  0  0  0  0  0  0  0
    1.7574   -5.2495   33.3809 C   0  0  0  0  0  0  0  0  0  0  0  0
    2.0815   -5.5994   32.0019 C   0  0  0  0  0  0  0  0  0  0  0  0
    1.2286   -6.1701   31.1346 C   0  0  0  0  0  0  0  0  0  0  0  0
    1.4870   -6.1968   29.7752 N   0  0  0  0  0  0  0  0  0  0  0  0
    2.6532   -5.6322   29.0739 C   0  0  0  0  0  0  0  0  0  0  0  0
    2.6789   -4.1008   28.8436 C   0  0  0  0  0  0  0  0  0  0  0  0
    3.9723   -3.1851   29.7767 S   0  0  0  0  0  0  0  0  0  0  0  0
    3.2194   -3.8394   27.1196 Cl  0  0  0  0  0  0  0  0  0  0  0  0
    1.2718   -3.4678   29.0407 C   0  0  0  0  0  0  0  0  0  0  0  0
    0.5274   -3.4494   28.1330 O   0  0  0  0  0  0  0  0  0  0  0  0
    1.0626   -3.0298   30.5403 N   0  0  0  0  0  0  0  0  0  0  0  0
   -0.0952   -2.3838   31.1991 C   0  0  0  0  0  0  0  0  0  0  0  0
   -0.8659   -1.6300   30.1045 C   0  0  0  0  0  0  0  0  0  0  0  0
   -1.8800   -2.1763   29.4362 N   0  0  0  0  0  0  0  0  0  0  0  0
   -1.8375   -1.4594   28.3003 N   0  0  0  0  0  0  0  0  0  0  0  0
   -0.9750   -0.4129   28.4446 C   0  0  0  0  0  0  0  0  0  0  0  0
   -0.8234    0.7103   27.6073 C   0  0  0  0  0  0  0  0  0  0  0  0
    0.2981    1.5117   27.5575 C   0  0  0  0  0  0  0  0  0  0  0  0
    0.0713    2.6866   26.7948 C   0  0  0  0  0  0  0  0  0  0  0  0
   -1.2076    2.7244   26.2832 C   0  0  0  0  0  0  0  0  0  0  0  0
   -2.1122    1.3350   26.6958 S   0  0  0  0  0  0  0  0  0  0  0  0
   -0.3188   -0.5147   29.5715 N   0  0  0  0  0  0  0  0  0  0  0  0
   -1.0118   -3.2227   32.1063 C   0  0  0  0  0  0  0  0  0  0  0  0
   -1.0889   -2.0239   33.0707 C   0  0  0  0  0  0  0  0  0  0  0  0
    0.2129   -1.5022   32.4335 C   0  0  0  0  0  0  0  0  0  0  0  0
    0.0554   -6.7739   31.6933 C   0  0  0  0  0  0  0  0  0  0  0  0
   -0.9159   -7.4959   31.1733 N   0  0  0  0  0  0  0  0  0  0  0  0
   -1.7015   -7.9390   32.2126 N   0  0  0  0  0  0  0  0  0  0  0  0
   -1.2216   -7.4551   33.3387 C   0  0  0  0  0  0  0  0  0  0  0  0
   -1.6529   -7.7196   34.6012 N   0  0  0  0  0  0  0  0  0  0  0  0
   -0.1158   -6.6775   33.0677 N   0  0  0  0  0  0  0  0  0  0  0  0
    0.6871   -5.8889   33.9030 C   0  0  0  0  0  0  0  0  0  0  0  0
    2.2193   -3.7343   35.3683 C   0  0  0  0  0  0  0  0  0  0  0  0
    2.8077   -2.5660   35.8737 C   0  0  0  0  0  0  0  0  0  0  0  0
    2.6749   -2.3444   37.2188 O   0  0  0  0  0  0  0  0  0  0  0  0
    3.8552   -2.8233   37.8706 C   0  0  0  0  0  0  0  0  0  0  0  0
    5.8382   -0.3931   34.7551 H   0  0  0  0  0  0  0  0  0  0  0  0
    5.2734    1.0472   35.6094 H   0  0  0  0  0  0  0  0  0  0  0  0
    4.5555    0.6623   34.0421 H   0  0  0  0  0  0  0  0  0  0  0  0
    4.3934   -1.4392   33.1061 H   0  0  0  0  0  0  0  0  0  0  0  0
    3.6153   -3.5230   32.3189 H   0  0  0  0  0  0  0  0  0  0  0  0
    3.0542   -5.2957   31.6502 H   0  0  0  0  0  0  0  0  0  0  0  0
    0.5985   -6.0404   29.2804 H   0  0  0  0  0  0  0  0  0  0  0  0
    2.6675   -6.1521   28.1079 H   0  0  0  0  0  0  0  0  0  0  0  0
    3.5786   -5.9681   29.5561 H   0  0  0  0  0  0  0  0  0  0  0  0
    3.8809   -2.0666   29.0382 H   0  0  0  0  0  0  0  0  0  0  0  0
    1.9370   -3.1016   31.0386 H   0  0  0  0  0  0  0  0  0  0  0  0
   -2.4171   -1.7239   27.5080 H   0  0  0  0  0  0  0  0  0  0  0  0
    1.2106    1.2917   28.0976 H   0  0  0  0  0  0  0  0  0  0  0  0
    0.7902    3.4836   26.6528 H   0  0  0  0  0  0  0  0  0  0  0  0
   -1.6676    3.5077   25.6945 H   0  0  0  0  0  0  0  0  0  0  0  0
   -1.9706   -3.5376   31.6925 H   0  0  0  0  0  0  0  0  0  0  0  0
   -0.5430   -4.0865   32.5559 H   0  0  0  0  0  0  0  0  0  0  0  0
   -1.9559   -1.3752   32.9014 H   0  0  0  0  0  0  0  0  0  0  0  0
   -1.0309   -2.2686   34.1344 H   0  0  0  0  0  0  0  0  0  0  0  0
    1.1022   -1.7829   32.9929 H   0  0  0  0  0  0  0  0  0  0  0  0
    0.2460   -0.4193   32.2777 H   0  0  0  0  0  0  0  0  0  0  0  0
   -0.9491   -7.6814   35.3319 H   0  0  0  0  0  0  0  0  0  0  0  0
   -2.0322   -8.6818   34.6254 H   0  0  0  0  0  0  0  0  0  0  0  0
    0.3075   -5.7377   34.9045 H   0  0  0  0  0  0  0  0  0  0  0  0
    1.6162   -4.3325   36.0432 H   0  0  0  0  0  0  0  0  0  0  0  0
    4.0246   -3.8870   37.6668 H   0  0  0  0  0  0  0  0  0  0  0  0
    3.7050   -2.7104   38.9487 H   0  0  0  0  0  0  0  0  0  0  0  0
    4.7370   -2.2353   37.5942 H   0  0  0  0  0  0  0  0  0  0  0  0
  1  2  1  0
  2  3  1  0
  3  4  2  0
  4  5  1  0
  5  6  2  0
  6  7  1  0
  7  8  1  0
  8  9  2  0
  9 10  1  0
 10 11  1  0
 11 12  1  0
 12 13  1  0
 12 14  1  0
 12 15  1  0
 15 16  2  0
 15 17  1  0
 17 18  1  0
 18 19  1  0
 19 20  2  0
 20 21  1  0
 21 22  1  0
 22 23  1  0
 23 24  2  0
 24 25  1  0
 25 26  2  0
 26 27  1  0
 22 28  2  0
 18 29  1  0
 29 30  1  0
 30 31  1  0
  9 32  1  0
 32 33  2  0
 33 34  1  0
 34 35  2  0
 35 36  1  0
 35 37  1  0
 37 38  1  0
  6 39  1  0
 39 40  2  0
 40 41  1  0
 41 42  1  0
 40  3  1  0
 38  7  2  0
 31 18  1  0
 37 32  1  0
 28 19  1  0
 27 23  1  0
  1 43  1  0
  1 44  1  0
  1 45  1  0
  4 46  1  0
  5 47  1  0
  8 48  1  0
 10 49  1  0
 11 50  1  0
 11 51  1  0
 13 52  1  0
 17 53  1  0
 21 54  1  0
 24 55  1  0
 25 56  1  0
 26 57  1  0
 29 58  1  0
 29 59  1  0
 30 60  1  0
 30 61  1  0
 31 62  1  0
 31 63  1  0
 36 64  1  0
 36 65  1  0
 38 66  1  0
 39 67  1  0
 42 68  1  0
 42 69  1  0
 42 70  1  0
M  END
>  <Energy>  (1046) 
243.52492858312726

>  <compound_id>  (1046) 
3831

>  <target_id>  (1046) 
1

>  <reference_id>  (1046) 
13

>  <inspiration_ids>  (1046) 
[133, 13]

>  <energy_score>  (1046) 
-207.96368322983722

>  <distance_score>  (1046) 
1.5046718429644352

>  <path>  (1046) 
/opt/xchem-fragalysis-2/maxwin/BulkDock/SCRATCH/505734/C3831-P13/C3831-P13.minimised.mol

>  <scratch_subdir>  (1046) 
/opt/xchem-fragalysis-2/maxwin/BulkDock/SCRATCH/505734/C3831-P13

>  <fragmenstein_runtime>  (1046) 
17.004960536956787

>  <fragmenstein_outcome>  (1046) 
too moved

>  <fragmenstein_mode>  (1046) 
expansion

>  <fragmenstein_error>  (1046) 


$$$$
C3833-P133
     RDKit          3D

 48 51  0  0  0  0  0  0  0  0999 V2000
    5.2092    0.1920   34.4037 C   0  0  0  0  0  0  0  0  0  0  0  0
    4.1230   -0.4126   35.0861 O   0  0  0  0  0  0  0  0  0  0  0  0
    3.2887   -1.1930   34.3380 C   0  0  0  0  0  0  0  0  0  0  0  0
    3.1345   -1.0964   32.9547 C   0  0  0  0  0  0  0  0  0  0  0  0
    2.2313   -1.9280   32.2789 C   0  0  0  0  0  0  0  0  0  0  0  0
    1.4124   -2.8264   32.9752 C   0  0  0  0  0  0  0  0  0  0  0  0
    0.5252   -3.7617   32.2281 C   0  0  0  0  0  0  0  0  0  0  0  0
    0.2797   -4.9562   32.8182 C   0  0  0  0  0  0  0  0  0  0  0  0
   -0.2656   -5.9941   32.0913 N   0  0  0  0  0  0  0  0  0  0  0  0
   -0.7272   -7.2412   32.4795 C   0  0  0  0  0  0  0  0  0  0  0  0
   -0.8471   -7.6163   33.7737 N   0  0  0  0  0  0  0  0  0  0  0  0
   -1.0100   -7.9352   31.3986 N   0  0  0  0  0  0  0  0  0  0  0  0
   -0.7827   -7.1316   30.2933 N   0  0  0  0  0  0  0  0  0  0  0  0
   -0.3922   -5.9428   30.7176 C   0  0  0  0  0  0  0  0  0  0  0  0
   -0.2888   -4.6445   30.0842 C   0  0  0  0  0  0  0  0  0  0  0  0
   -0.0137   -3.5423   30.8306 C   0  0  0  0  0  0  0  0  0  0  0  0
   -0.6255   -2.1361   30.5239 C   0  0  0  0  0  0  0  0  0  0  0  0
   -0.4349   -1.4250   29.1686 N   0  0  0  0  0  0  0  0  0  0  0  0
   -0.8661    0.2475   29.3812 S   0  0  0  0  0  0  0  0  0  0  0  0
   -2.2163    0.1977   29.8991 O   0  0  0  0  0  0  0  0  0  0  0  0
    0.1734    0.8080   30.2237 O   0  0  0  0  0  0  0  0  0  0  0  0
   -0.9432    1.2952   27.9744 C   0  0  0  0  0  0  0  0  0  0  0  0
   -1.9503    1.9500   27.2902 C   0  0  0  0  0  0  0  0  0  0  0  0
   -1.4114    2.8799   26.3661 C   0  0  0  0  0  0  0  0  0  0  0  0
   -0.0893    2.9202   26.2721 N   0  0  0  0  0  0  0  0  0  0  0  0
    0.5377    1.9038   27.4050 S   0  0  0  0  0  0  0  0  0  0  0  0
    1.5452   -2.8758   34.3740 C   0  0  0  0  0  0  0  0  0  0  0  0
    2.5108   -2.1176   35.0358 C   0  0  0  0  0  0  0  0  0  0  0  0
    2.6227   -2.3244   36.3883 O   0  0  0  0  0  0  0  0  0  0  0  0
    3.8789   -2.9207   36.7219 C   0  0  0  0  0  0  0  0  0  0  0  0
    4.8635    1.0220   33.7793 H   0  0  0  0  0  0  0  0  0  0  0  0
    5.8900    0.6039   35.1550 H   0  0  0  0  0  0  0  0  0  0  0  0
    5.7708   -0.5381   33.8107 H   0  0  0  0  0  0  0  0  0  0  0  0
    3.7029   -0.3813   32.3677 H   0  0  0  0  0  0  0  0  0  0  0  0
    2.1846   -1.8481   31.1940 H   0  0  0  0  0  0  0  0  0  0  0  0
    0.5715   -5.2314   33.8223 H   0  0  0  0  0  0  0  0  0  0  0  0
   -1.2912   -8.5215   33.9679 H   0  0  0  0  0  0  0  0  0  0  0  0
   -1.0431   -6.9371   34.5010 H   0  0  0  0  0  0  0  0  0  0  0  0
   -0.7214   -4.5396   29.0931 H   0  0  0  0  0  0  0  0  0  0  0  0
   -0.3030   -1.4502   31.3137 H   0  0  0  0  0  0  0  0  0  0  0  0
   -1.7108   -2.2579   30.6536 H   0  0  0  0  0  0  0  0  0  0  0  0
   -1.0219   -1.8450   28.4388 H   0  0  0  0  0  0  0  0  0  0  0  0
   -3.0054    1.8315   27.4726 H   0  0  0  0  0  0  0  0  0  0  0  0
   -1.9826    3.5466   25.7295 H   0  0  0  0  0  0  0  0  0  0  0  0
    0.9215   -3.5192   34.9877 H   0  0  0  0  0  0  0  0  0  0  0  0
    4.1934   -3.6676   35.9834 H   0  0  0  0  0  0  0  0  0  0  0  0
    3.7587   -3.4296   37.6832 H   0  0  0  0  0  0  0  0  0  0  0  0
    4.6501   -2.1549   36.8448 H   0  0  0  0  0  0  0  0  0  0  0  0
  1  2  1  0
  2  3  1  0
  3  4  2  0
  4  5  1  0
  5  6  2  0
  6  7  1  0
  7  8  2  0
  8  9  1  0
  9 10  1  0
 10 11  1  0
 10 12  2  0
 12 13  1  0
 13 14  2  0
 14 15  1  0
 15 16  2  0
 16 17  1  0
 17 18  1  0
 18 19  1  0
 19 20  2  0
 19 21  2  0
 19 22  1  0
 22 23  2  0
 23 24  1  0
 24 25  2  0
 25 26  1  0
  6 27  1  0
 27 28  2  0
 28 29  1  0
 29 30  1  0
 28  3  1  0
 16  7  1  0
 26 22  1  0
 14  9  1  0
  1 31  1  0
  1 32  1  0
  1 33  1  0
  4 34  1  0
  5 35  1  0
  8 36  1  0
 11 37  1  0
 11 38  1  0
 15 39  1  0
 17 40  1  0
 17 41  1  0
 18 42  1  0
 23 43  1  0
 24 44  1  0
 27 45  1  0
 30 46  1  0
 30 47  1  0
 30 48  1  0
M  END
>  <Energy>  (1047) 
17.810249197679518

>  <compound_id>  (1047) 
3833

>  <target_id>  (1047) 
1

>  <reference_id>  (1047) 
133

>  <inspiration_ids>  (1047) 
[133, 44]

>  <energy_score>  (1047) 
-47.61422663930591

>  <distance_score>  (1047) 
1.878877081810179

>  <path>  (1047) 
/opt/xchem-fragalysis-2/maxwin/BulkDock/SCRATCH/505734/C3833-P133/C3833-P133.minimised.mol

>  <scratch_subdir>  (1047) 
/opt/xchem-fragalysis-2/maxwin/BulkDock/SCRATCH/505734/C3833-P133

>  <fragmenstein_runtime>  (1047) 
3.5350754261016846

>  <fragmenstein_outcome>  (1047) 
too moved

>  <fragmenstein_mode>  (1047) 
expansion

>  <fragmenstein_error>  (1047) 


$$$$
C3833-P44
     RDKit          3D

 48 51  0  0  0  0  0  0  0  0999 V2000
    5.3118    0.1697   34.5514 C   0  0  0  0  0  0  0  0  0  0  0  0
    4.2790   -0.5602   35.1911 O   0  0  0  0  0  0  0  0  0  0  0  0
    3.4840   -1.3461   34.4087 C   0  0  0  0  0  0  0  0  0  0  0  0
    3.5361   -1.4104   33.0190 C   0  0  0  0  0  0  0  0  0  0  0  0
    2.6522   -2.2355   32.3150 C   0  0  0  0  0  0  0  0  0  0  0  0
    1.6238   -2.9263   32.9661 C   0  0  0  0  0  0  0  0  0  0  0  0
    0.6921   -3.7977   32.1973 C   0  0  0  0  0  0  0  0  0  0  0  0
    0.3589   -4.9623   32.8084 C   0  0  0  0  0  0  0  0  0  0  0  0
   -0.3141   -5.9533   32.1226 N   0  0  0  0  0  0  0  0  0  0  0  0
   -0.8520   -7.1671   32.5333 C   0  0  0  0  0  0  0  0  0  0  0  0
   -0.9684   -7.5459   33.8282 N   0  0  0  0  0  0  0  0  0  0  0  0
   -1.2573   -7.8259   31.4691 N   0  0  0  0  0  0  0  0  0  0  0  0
   -1.0378   -7.0310   30.3599 N   0  0  0  0  0  0  0  0  0  0  0  0
   -0.5461   -5.8732   30.7652 C   0  0  0  0  0  0  0  0  0  0  0  0
   -0.3390   -4.5955   30.1187 C   0  0  0  0  0  0  0  0  0  0  0  0
    0.1708   -3.5346   30.7922 C   0  0  0  0  0  0  0  0  0  0  0  0
    0.2306   -2.0525   30.2779 C   0  0  0  0  0  0  0  0  0  0  0  0
   -0.6990   -1.5360   29.1809 N   0  0  0  0  0  0  0  0  0  0  0  0
   -1.1700    0.1049   29.4151 S   0  0  0  0  0  0  0  0  0  0  0  0
   -2.5165    0.0418   29.9381 O   0  0  0  0  0  0  0  0  0  0  0  0
   -0.1336    0.7136   30.2299 O   0  0  0  0  0  0  0  0  0  0  0  0
   -1.2456    1.1556   28.0043 C   0  0  0  0  0  0  0  0  0  0  0  0
   -2.2253    1.9114   27.3894 C   0  0  0  0  0  0  0  0  0  0  0  0
   -1.6568    2.7990   26.4404 C   0  0  0  0  0  0  0  0  0  0  0  0
   -0.3447    2.7148   26.2634 N   0  0  0  0  0  0  0  0  0  0  0  0
    0.2482    1.6206   27.3403 S   0  0  0  0  0  0  0  0  0  0  0  0
    1.5768   -2.8449   34.3667 C   0  0  0  0  0  0  0  0  0  0  0  0
    2.5446   -2.1340   35.0767 C   0  0  0  0  0  0  0  0  0  0  0  0
    2.5062   -2.2566   36.4431 O   0  0  0  0  0  0  0  0  0  0  0  0
    3.6949   -2.8798   36.9420 C   0  0  0  0  0  0  0  0  0  0  0  0
    4.9006    0.9161   33.8639 H   0  0  0  0  0  0  0  0  0  0  0  0
    5.8726    0.7047   35.3240 H   0  0  0  0  0  0  0  0  0  0  0  0
    6.0110   -0.4981   34.0371 H   0  0  0  0  0  0  0  0  0  0  0  0
    4.2716   -0.8515   32.4491 H   0  0  0  0  0  0  0  0  0  0  0  0
    2.8047   -2.3270   31.2442 H   0  0  0  0  0  0  0  0  0  0  0  0
    0.6504   -5.2319   33.8142 H   0  0  0  0  0  0  0  0  0  0  0  0
   -1.1835   -8.5356   34.0007 H   0  0  0  0  0  0  0  0  0  0  0  0
   -0.3765   -7.1549   34.5503 H   0  0  0  0  0  0  0  0  0  0  0  0
   -0.7192   -4.4641   29.1100 H   0  0  0  0  0  0  0  0  0  0  0  0
    1.2426   -1.8520   29.9133 H   0  0  0  0  0  0  0  0  0  0  0  0
    0.0417   -1.4458   31.1709 H   0  0  0  0  0  0  0  0  0  0  0  0
   -0.4310   -1.7622   28.2214 H   0  0  0  0  0  0  0  0  0  0  0  0
   -3.2723    1.8906   27.6425 H   0  0  0  0  0  0  0  0  0  0  0  0
   -2.2005    3.5267   25.8479 H   0  0  0  0  0  0  0  0  0  0  0  0
    0.8081   -3.3554   34.9412 H   0  0  0  0  0  0  0  0  0  0  0  0
    4.0791   -3.6523   36.2654 H   0  0  0  0  0  0  0  0  0  0  0  0
    3.4401   -3.3628   37.8904 H   0  0  0  0  0  0  0  0  0  0  0  0
    4.4645   -2.1304   37.1478 H   0  0  0  0  0  0  0  0  0  0  0  0
  1  2  1  0
  2  3  1  0
  3  4  2  0
  4  5  1  0
  5  6  2  0
  6  7  1  0
  7  8  2  0
  8  9  1  0
  9 10  1  0
 10 11  1  0
 10 12  2  0
 12 13  1  0
 13 14  2  0
 14 15  1  0
 15 16  2  0
 16 17  1  0
 17 18  1  0
 18 19  1  0
 19 20  2  0
 19 21  2  0
 19 22  1  0
 22 23  2  0
 23 24  1  0
 24 25  2  0
 25 26  1  0
  6 27  1  0
 27 28  2  0
 28 29  1  0
 29 30  1  0
 28  3  1  0
 16  7  1  0
 26 22  1  0
 14  9  1  0
  1 31  1  0
  1 32  1  0
  1 33  1  0
  4 34  1  0
  5 35  1  0
  8 36  1  0
 11 37  1  0
 11 38  1  0
 15 39  1  0
 17 40  1  0
 17 41  1  0
 18 42  1  0
 23 43  1  0
 24 44  1  0
 27 45  1  0
 30 46  1  0
 30 47  1  0
 30 48  1  0
M  END
>  <Energy>  (1048) 
13.872320083028201

>  <compound_id>  (1048) 
3833

>  <target_id>  (1048) 
1

>  <reference_id>  (1048) 
44

>  <inspiration_ids>  (1048) 
[133, 44]

>  <energy_score>  (1048) 
-51.55215575395562

>  <distance_score>  (1048) 
1.8241574781625771

>  <path>  (1048) 
/opt/xchem-fragalysis-2/maxwin/BulkDock/SCRATCH/505734/C3833-P44/C3833-P44.minimised.mol

>  <scratch_subdir>  (1048) 
/opt/xchem-fragalysis-2/maxwin/BulkDock/SCRATCH/505734/C3833-P44

>  <fragmenstein_runtime>  (1048) 
3.396249532699585

>  <fragmenstein_outcome>  (1048) 
too moved

>  <fragmenstein_mode>  (1048) 
expansion

>  <fragmenstein_error>  (1048) 


$$$$
C3834-P133
     RDKit          3D

 53 56  0  0  0  0  0  0  0  0999 V2000
    5.3294    0.0556   34.4856 C   0  0  0  0  0  0  0  0  0  0  0  0
    4.3179   -0.6690   35.1644 O   0  0  0  0  0  0  0  0  0  0  0  0
    3.6630   -1.6401   34.4643 C   0  0  0  0  0  0  0  0  0  0  0  0
    3.9472   -2.0342   33.1629 C   0  0  0  0  0  0  0  0  0  0  0  0
    3.1778   -3.0285   32.5457 C   0  0  0  0  0  0  0  0  0  0  0  0
    2.0183   -3.5364   33.1449 C   0  0  0  0  0  0  0  0  0  0  0  0
    1.1184   -4.4668   32.4111 C   0  0  0  0  0  0  0  0  0  0  0  0
    0.5274   -5.4503   33.1422 C   0  0  0  0  0  0  0  0  0  0  0  0
   -0.2769   -6.4112   32.5394 N   0  0  0  0  0  0  0  0  0  0  0  0
   -1.0126   -7.4734   33.0423 C   0  0  0  0  0  0  0  0  0  0  0  0
   -1.1838   -7.7263   34.3595 N   0  0  0  0  0  0  0  0  0  0  0  0
   -1.4978   -8.1684   32.0340 N   0  0  0  0  0  0  0  0  0  0  0  0
   -1.1469   -7.5455   30.8601 N   0  0  0  0  0  0  0  0  0  0  0  0
   -0.4572   -6.4726   31.1765 C   0  0  0  0  0  0  0  0  0  0  0  0
    0.0708   -5.4115   30.4015 C   0  0  0  0  0  0  0  0  0  0  0  0
    0.8088   -4.4128   30.9468 C   0  0  0  0  0  0  0  0  0  0  0  0
    1.2686   -3.3111   29.9777 C   0  0  0  0  0  0  0  0  0  0  0  0
    1.2125   -1.9577   30.5315 N   0  0  0  0  0  0  0  0  0  0  0  0
    0.4789   -0.7114   29.6814 S   0  0  0  0  0  0  0  0  0  0  0  0
    0.0670   -1.1755   28.3839 O   0  0  0  0  0  0  0  0  0  0  0  0
    1.3313    0.4396   29.8790 O   0  0  0  0  0  0  0  0  0  0  0  0
   -0.8916   -0.6096   30.7596 C   0  0  0  0  0  0  0  0  0  0  0  0
   -1.8480   -1.6180   30.7127 C   0  0  0  0  0  0  0  0  0  0  0  0
   -2.7312   -1.7480   31.7763 C   0  0  0  0  0  0  0  0  0  0  0  0
   -2.6514   -0.8805   32.8546 C   0  0  0  0  0  0  0  0  0  0  0  0
   -3.5593   -1.0309   33.8522 O   0  0  0  0  0  0  0  0  0  0  0  0
   -1.6862    0.1149   32.9086 C   0  0  0  0  0  0  0  0  0  0  0  0
   -0.8048    0.2630   31.8398 C   0  0  0  0  0  0  0  0  0  0  0  0
    1.7643   -3.1559   34.4684 C   0  0  0  0  0  0  0  0  0  0  0  0
    2.6336   -2.2962   35.1391 C   0  0  0  0  0  0  0  0  0  0  0  0
    2.4351   -2.1382   36.4868 O   0  0  0  0  0  0  0  0  0  0  0  0
    3.4837   -2.7976   37.2081 C   0  0  0  0  0  0  0  0  0  0  0  0
    6.1650   -0.5968   34.2117 H   0  0  0  0  0  0  0  0  0  0  0  0
    5.7144    0.8172   35.1707 H   0  0  0  0  0  0  0  0  0  0  0  0
    4.9279    0.5717   33.6071 H   0  0  0  0  0  0  0  0  0  0  0  0
    4.7835   -1.6169   32.6110 H   0  0  0  0  0  0  0  0  0  0  0  0
    3.4930   -3.3704   31.5639 H   0  0  0  0  0  0  0  0  0  0  0  0
    0.6565   -5.5752   34.2089 H   0  0  0  0  0  0  0  0  0  0  0  0
   -0.5342   -7.3866   35.0563 H   0  0  0  0  0  0  0  0  0  0  0  0
   -1.4761   -8.6938   34.5775 H   0  0  0  0  0  0  0  0  0  0  0  0
   -0.1884   -5.4001   29.3513 H   0  0  0  0  0  0  0  0  0  0  0  0
    2.3015   -3.5161   29.6733 H   0  0  0  0  0  0  0  0  0  0  0  0
    0.6733   -3.3724   29.0608 H   0  0  0  0  0  0  0  0  0  0  0  0
    2.0508   -1.6038   30.9838 H   0  0  0  0  0  0  0  0  0  0  0  0
   -1.8691   -2.3258   29.8866 H   0  0  0  0  0  0  0  0  0  0  0  0
   -3.4870   -2.5270   31.7761 H   0  0  0  0  0  0  0  0  0  0  0  0
   -3.1996   -0.6463   34.6687 H   0  0  0  0  0  0  0  0  0  0  0  0
   -1.6046    0.7728   33.7681 H   0  0  0  0  0  0  0  0  0  0  0  0
   -0.0138    1.0077   31.8993 H   0  0  0  0  0  0  0  0  0  0  0  0
    0.9018   -3.5277   35.0154 H   0  0  0  0  0  0  0  0  0  0  0  0
    4.4040   -2.2057   37.1997 H   0  0  0  0  0  0  0  0  0  0  0  0
    3.6715   -3.8074   36.8245 H   0  0  0  0  0  0  0  0  0  0  0  0
    3.1580   -2.8907   38.2487 H   0  0  0  0  0  0  0  0  0  0  0  0
  1  2  1  0
  2  3  1  0
  3  4  2  0
  4  5  1  0
  5  6  2  0
  6  7  1  0
  7  8  2  0
  8  9  1  0
  9 10  1  0
 10 11  1  0
 10 12  2  0
 12 13  1  0
 13 14  2  0
 14 15  1  0
 15 16  2  0
 16 17  1  0
 17 18  1  0
 18 19  1  0
 19 20  2  0
 19 21  2  0
 19 22  1  0
 22 23  2  0
 23 24  1  0
 24 25  2  0
 25 26  1  0
 25 27  1  0
 27 28  2  0
  6 29  1  0
 29 30  2  0
 30 31  1  0
 31 32  1  0
 30  3  1  0
 16  7  1  0
 28 22  1  0
 14  9  1  0
  1 33  1  0
  1 34  1  0
  1 35  1  0
  4 36  1  0
  5 37  1  0
  8 38  1  0
 11 39  1  0
 11 40  1  0
 15 41  1  0
 17 42  1  0
 17 43  1  0
 18 44  1  0
 23 45  1  0
 24 46  1  0
 26 47  1  0
 27 48  1  0
 28 49  1  0
 29 50  1  0
 32 51  1  0
 32 52  1  0
 32 53  1  0
M  END
>  <Energy>  (1049) 
24.583435424012897

>  <compound_id>  (1049) 
3834

>  <target_id>  (1049) 
1

>  <reference_id>  (1049) 
133

>  <inspiration_ids>  (1049) 
[133, 59]

>  <energy_score>  (1049) 
-46.4160619505617

>  <distance_score>  (1049) 
1.5511927188939865

>  <path>  (1049) 
/opt/xchem-fragalysis-2/maxwin/BulkDock/SCRATCH/505734/C3834-P133/C3834-P133.minimised.mol

>  <scratch_subdir>  (1049) 
/opt/xchem-fragalysis-2/maxwin/BulkDock/SCRATCH/505734/C3834-P133

>  <fragmenstein_runtime>  (1049) 
3.8831143379211426

>  <fragmenstein_outcome>  (1049) 
too moved

>  <fragmenstein_mode>  (1049) 
expansion

>  <fragmenstein_error>  (1049) 


$$$$
C3834-P59
     RDKit          3D

 53 56  0  0  0  0  0  0  0  0999 V2000
    5.3002    0.1384   34.5264 C   0  0  0  0  0  0  0  0  0  0  0  0
    4.2888   -0.5985   35.1932 O   0  0  0  0  0  0  0  0  0  0  0  0
    3.6409   -1.5621   34.4769 C   0  0  0  0  0  0  0  0  0  0  0  0
    3.8581   -1.8587   33.1373 C   0  0  0  0  0  0  0  0  0  0  0  0
    3.1016   -2.8511   32.5024 C   0  0  0  0  0  0  0  0  0  0  0  0
    2.0185   -3.4682   33.1392 C   0  0  0  0  0  0  0  0  0  0  0  0
    1.1078   -4.3898   32.4054 C   0  0  0  0  0  0  0  0  0  0  0  0
    0.5715   -5.4124   33.1239 C   0  0  0  0  0  0  0  0  0  0  0  0
   -0.2759   -6.3421   32.5343 N   0  0  0  0  0  0  0  0  0  0  0  0
   -0.9946   -7.4092   33.0454 C   0  0  0  0  0  0  0  0  0  0  0  0
   -1.0894   -7.6962   34.3651 N   0  0  0  0  0  0  0  0  0  0  0  0
   -1.5649   -8.0581   32.0515 N   0  0  0  0  0  0  0  0  0  0  0  0
   -1.2903   -7.3889   30.8815 N   0  0  0  0  0  0  0  0  0  0  0  0
   -0.5605   -6.3392   31.1898 C   0  0  0  0  0  0  0  0  0  0  0  0
   -0.0759   -5.2463   30.4320 C   0  0  0  0  0  0  0  0  0  0  0  0
    0.7068   -4.2762   30.9672 C   0  0  0  0  0  0  0  0  0  0  0  0
    1.1292   -3.1616   29.9954 C   0  0  0  0  0  0  0  0  0  0  0  0
    1.1870   -1.8058   30.5684 N   0  0  0  0  0  0  0  0  0  0  0  0
    0.5031   -0.5222   29.7011 S   0  0  0  0  0  0  0  0  0  0  0  0
    0.2863   -0.9182   28.3338 O   0  0  0  0  0  0  0  0  0  0  0  0
    1.2292    0.6707   30.0728 O   0  0  0  0  0  0  0  0  0  0  0  0
   -1.0102   -0.5423   30.5926 C   0  0  0  0  0  0  0  0  0  0  0  0
   -1.0301    0.1506   31.8054 C   0  0  0  0  0  0  0  0  0  0  0  0
   -1.9818   -0.1561   32.7662 C   0  0  0  0  0  0  0  0  0  0  0  0
   -2.8979   -1.1537   32.5019 C   0  0  0  0  0  0  0  0  0  0  0  0
   -3.8448   -1.4932   33.4118 O   0  0  0  0  0  0  0  0  0  0  0  0
   -2.8800   -1.8343   31.2926 C   0  0  0  0  0  0  0  0  0  0  0  0
   -1.9535   -1.5150   30.2993 C   0  0  0  0  0  0  0  0  0  0  0  0
    1.8253   -3.1746   34.4958 C   0  0  0  0  0  0  0  0  0  0  0  0
    2.6820   -2.3031   35.1670 C   0  0  0  0  0  0  0  0  0  0  0  0
    2.5267   -2.2145   36.5266 O   0  0  0  0  0  0  0  0  0  0  0  0
    3.6418   -2.8291   37.1839 C   0  0  0  0  0  0  0  0  0  0  0  0
    6.1137   -0.5155   34.1948 H   0  0  0  0  0  0  0  0  0  0  0  0
    5.7201    0.8534   35.2405 H   0  0  0  0  0  0  0  0  0  0  0  0
    4.8867    0.7102   33.6890 H   0  0  0  0  0  0  0  0  0  0  0  0
    4.6218   -1.3531   32.5542 H   0  0  0  0  0  0  0  0  0  0  0  0
    3.3623   -3.0882   31.4746 H   0  0  0  0  0  0  0  0  0  0  0  0
    0.7706   -5.5864   34.1726 H   0  0  0  0  0  0  0  0  0  0  0  0
   -0.3422   -7.4256   34.9929 H   0  0  0  0  0  0  0  0  0  0  0  0
   -1.3544   -8.6790   34.5384 H   0  0  0  0  0  0  0  0  0  0  0  0
   -0.3972   -5.1851   29.4012 H   0  0  0  0  0  0  0  0  0  0  0  0
    2.1292   -3.3993   29.6128 H   0  0  0  0  0  0  0  0  0  0  0  0
    0.4705   -3.1759   29.1205 H   0  0  0  0  0  0  0  0  0  0  0  0
    0.9379   -1.7546   31.5555 H   0  0  0  0  0  0  0  0  0  0  0  0
   -0.2577    0.8825   32.0410 H   0  0  0  0  0  0  0  0  0  0  0  0
   -1.9787    0.3735   33.7142 H   0  0  0  0  0  0  0  0  0  0  0  0
   -3.5642   -1.1972   34.2942 H   0  0  0  0  0  0  0  0  0  0  0  0
   -3.6018   -2.6260   31.1436 H   0  0  0  0  0  0  0  0  0  0  0  0
   -1.9254   -2.0781   29.3680 H   0  0  0  0  0  0  0  0  0  0  0  0
    1.0178   -3.6181   35.0717 H   0  0  0  0  0  0  0  0  0  0  0  0
    4.5138   -2.1683   37.1844 H   0  0  0  0  0  0  0  0  0  0  0  0
    3.8944   -3.7998   36.7412 H   0  0  0  0  0  0  0  0  0  0  0  0
    3.3550   -3.0014   38.2259 H   0  0  0  0  0  0  0  0  0  0  0  0
  1  2  1  0
  2  3  1  0
  3  4  2  0
  4  5  1  0
  5  6  2  0
  6  7  1  0
  7  8  2  0
  8  9  1  0
  9 10  1  0
 10 11  1  0
 10 12  2  0
 12 13  1  0
 13 14  2  0
 14 15  1  0
 15 16  2  0
 16 17  1  0
 17 18  1  0
 18 19  1  0
 19 20  2  0
 19 21  2  0
 19 22  1  0
 22 23  2  0
 23 24  1  0
 24 25  2  0
 25 26  1  0
 25 27  1  0
 27 28  2  0
  6 29  1  0
 29 30  2  0
 30 31  1  0
 31 32  1  0
 30  3  1  0
 16  7  1  0
 28 22  1  0
 14  9  1  0
  1 33  1  0
  1 34  1  0
  1 35  1  0
  4 36  1  0
  5 37  1  0
  8 38  1  0
 11 39  1  0
 11 40  1  0
 15 41  1  0
 17 42  1  0
 17 43  1  0
 18 44  1  0
 23 45  1  0
 24 46  1  0
 26 47  1  0
 27 48  1  0
 28 49  1  0
 29 50  1  0
 32 51  1  0
 32 52  1  0
 32 53  1  0
M  END
>  <Energy>  (1050) 
28.055126888479542

>  <compound_id>  (1050) 
3834

>  <target_id>  (1050) 
1

>  <reference_id>  (1050) 
59

>  <inspiration_ids>  (1050) 
[133, 59]

>  <energy_score>  (1050) 
-42.94437048609848

>  <distance_score>  (1050) 
1.5117557034821296

>  <path>  (1050) 
/opt/xchem-fragalysis-2/maxwin/BulkDock/SCRATCH/505734/C3834-P59/C3834-P59.minimised.mol

>  <scratch_subdir>  (1050) 
/opt/xchem-fragalysis-2/maxwin/BulkDock/SCRATCH/505734/C3834-P59

>  <fragmenstein_runtime>  (1050) 
3.9190480709075928

>  <fragmenstein_outcome>  (1050) 
too moved

>  <fragmenstein_mode>  (1050) 
expansion

>  <fragmenstein_error>  (1050) 


$$$$
C3854-P133
     RDKit          3D

 54 57  0  0  0  0  0  0  0  0999 V2000
    4.7804   -0.2987   35.1056 C   0  0  0  0  0  0  0  0  0  0  0  0
    3.4728    0.1159   34.7186 O   0  0  0  0  0  0  0  0  0  0  0  0
    2.6266   -0.9322   34.4727 C   0  0  0  0  0  0  0  0  0  0  0  0
    2.0533   -0.9592   33.2033 C   0  0  0  0  0  0  0  0  0  0  0  0
    1.2446   -2.0321   32.8319 C   0  0  0  0  0  0  0  0  0  0  0  0
    0.9442   -3.0603   33.7448 C   0  0  0  0  0  0  0  0  0  0  0  0
    0.4951   -4.3485   33.2039 C   0  0  0  0  0  0  0  0  0  0  0  0
   -0.7009   -5.0057   33.4142 C   0  0  0  0  0  0  0  0  0  0  0  0
   -0.8899   -6.2520   32.7671 C   0  0  0  0  0  0  0  0  0  0  0  0
   -1.5344   -7.4919   33.0302 C   0  0  0  0  0  0  0  0  0  0  0  0
   -1.9705   -7.8276   34.2657 N   0  0  0  0  0  0  0  0  0  0  0  0
   -1.4651   -8.3277   31.9883 N   0  0  0  0  0  0  0  0  0  0  0  0
   -0.6494   -7.6847   31.1617 N   0  0  0  0  0  0  0  0  0  0  0  0
   -0.2356   -8.3430   30.0254 O   0  0  0  0  0  0  0  0  0  0  0  0
   -0.0664   -6.5861   31.7066 C   0  0  0  0  0  0  0  0  0  0  0  0
    1.1438   -5.9494   31.5280 C   0  0  0  0  0  0  0  0  0  0  0  0
    1.4664   -5.1371   32.6113 C   0  0  0  0  0  0  0  0  0  0  0  0
    2.7084   -5.3906   33.4291 C   0  0  0  0  0  0  0  0  0  0  0  0
    2.4904   -5.6581   34.8686 N   0  0  0  0  0  0  0  0  0  0  0  0
    1.8792   -7.1209   35.4104 S   0  0  0  0  0  0  0  0  0  0  0  0
    2.5622   -8.1843   34.7022 O   0  0  0  0  0  0  0  0  0  0  0  0
    0.4446   -7.0371   35.5388 O   0  0  0  0  0  0  0  0  0  0  0  0
    2.4566   -7.2527   37.0613 C   0  0  0  0  0  0  0  0  0  0  0  0
    1.7830   -7.9123   38.1094 C   0  0  0  0  0  0  0  0  0  0  0  0
    2.5867   -7.7246   39.2092 C   0  0  0  0  0  0  0  0  0  0  0  0
    3.6496   -6.9823   38.7856 N   0  0  0  0  0  0  0  0  0  0  0  0
    4.7589   -6.5267   39.5895 C   0  0  0  0  0  0  0  0  0  0  0  0
    3.5982   -6.6585   37.4753 N   0  0  0  0  0  0  0  0  0  0  0  0
    1.4002   -2.9349   35.0644 C   0  0  0  0  0  0  0  0  0  0  0  0
    2.3033   -1.9223   35.4078 C   0  0  0  0  0  0  0  0  0  0  0  0
    2.8667   -1.8653   36.6558 O   0  0  0  0  0  0  0  0  0  0  0  0
    3.5379   -3.0695   37.0236 C   0  0  0  0  0  0  0  0  0  0  0  0
    5.0729   -1.2543   34.6550 H   0  0  0  0  0  0  0  0  0  0  0  0
    4.8545   -0.3479   36.1957 H   0  0  0  0  0  0  0  0  0  0  0  0
    5.4865    0.4627   34.7601 H   0  0  0  0  0  0  0  0  0  0  0  0
    2.2841   -0.1773   32.4852 H   0  0  0  0  0  0  0  0  0  0  0  0
    0.8946   -2.0973   31.8026 H   0  0  0  0  0  0  0  0  0  0  0  0
   -1.3695   -4.6635   34.1942 H   0  0  0  0  0  0  0  0  0  0  0  0
   -1.4081   -7.4152   35.0190 H   0  0  0  0  0  0  0  0  0  0  0  0
   -1.9537   -8.8431   34.4358 H   0  0  0  0  0  0  0  0  0  0  0  0
   -0.1731   -9.2361   30.4178 H   0  0  0  0  0  0  0  0  0  0  0  0
    1.8834   -6.3243   30.8454 H   0  0  0  0  0  0  0  0  0  0  0  0
    3.2667   -6.2191   33.0215 H   0  0  0  0  0  0  0  0  0  0  0  0
    3.3738   -4.5229   33.3395 H   0  0  0  0  0  0  0  0  0  0  0  0
    3.3281   -5.4571   35.4213 H   0  0  0  0  0  0  0  0  0  0  0  0
    0.8406   -8.4451   38.0647 H   0  0  0  0  0  0  0  0  0  0  0  0
    2.4814   -8.0486   40.2357 H   0  0  0  0  0  0  0  0  0  0  0  0
    4.6314   -6.8752   40.6173 H   0  0  0  0  0  0  0  0  0  0  0  0
    4.7754   -5.4342   39.5641 H   0  0  0  0  0  0  0  0  0  0  0  0
    5.6798   -6.9360   39.1671 H   0  0  0  0  0  0  0  0  0  0  0  0
    1.1295   -3.6923   35.7946 H   0  0  0  0  0  0  0  0  0  0  0  0
    4.1578   -3.4539   36.2064 H   0  0  0  0  0  0  0  0  0  0  0  0
    4.1991   -2.8384   37.8643 H   0  0  0  0  0  0  0  0  0  0  0  0
    2.8200   -3.8213   37.3628 H   0  0  0  0  0  0  0  0  0  0  0  0
  1  2  1  0
  2  3  1  0
  3  4  2  0
  4  5  1  0
  5  6  2  0
  6  7  1  0
  7  8  2  0
  8  9  1  0
  9 10  1  0
 10 11  1  0
 10 12  2  0
 12 13  1  0
 13 14  1  0
 13 15  1  0
 15 16  1  0
 16 17  2  0
 17 18  1  0
 18 19  1  0
 19 20  1  0
 20 21  2  0
 20 22  2  0
 20 23  1  0
 23 24  1  0
 24 25  2  0
 25 26  1  0
 26 27  1  0
 26 28  1  0
  6 29  1  0
 29 30  2  0
 30 31  1  0
 31 32  1  0
 30  3  1  0
 17  7  1  0
 28 23  2  0
 15  9  2  0
  1 33  1  0
  1 34  1  0
  1 35  1  0
  4 36  1  0
  5 37  1  0
  8 38  1  0
 11 39  1  0
 11 40  1  0
 14 41  1  0
 16 42  1  0
 18 43  1  0
 18 44  1  0
 19 45  1  0
 24 46  1  0
 25 47  1  0
 27 48  1  0
 27 49  1  0
 27 50  1  0
 29 51  1  0
 32 52  1  0
 32 53  1  0
 32 54  1  0
M  END
>  <Energy>  (1051) 
61.526941420785704

>  <compound_id>  (1051) 
3854

>  <target_id>  (1051) 
1

>  <reference_id>  (1051) 
133

>  <inspiration_ids>  (1051) 
[133, 72]

>  <energy_score>  (1051) 
-29.957726994073965

>  <distance_score>  (1051) 
1.4399148852027606

>  <path>  (1051) 
/opt/xchem-fragalysis-2/maxwin/BulkDock/SCRATCH/505734/C3854-P133/C3854-P133.minimised.mol

>  <scratch_subdir>  (1051) 
/opt/xchem-fragalysis-2/maxwin/BulkDock/SCRATCH/505734/C3854-P133

>  <fragmenstein_runtime>  (1051) 
5.356017827987671

>  <fragmenstein_outcome>  (1051) 
too moved

>  <fragmenstein_mode>  (1051) 
expansion

>  <fragmenstein_error>  (1051) 


$$$$
C3854-P72
     RDKit          3D

 54 57  0  0  0  0  0  0  0  0999 V2000
    4.8396   -0.3163   35.1356 C   0  0  0  0  0  0  0  0  0  0  0  0
    3.5197    0.1021   34.7956 O   0  0  0  0  0  0  0  0  0  0  0  0
    2.6925   -0.9426   34.4832 C   0  0  0  0  0  0  0  0  0  0  0  0
    2.1174   -0.8999   33.2143 C   0  0  0  0  0  0  0  0  0  0  0  0
    1.3153   -1.9535   32.7790 C   0  0  0  0  0  0  0  0  0  0  0  0
    1.0232   -3.0325   33.6301 C   0  0  0  0  0  0  0  0  0  0  0  0
    0.5325   -4.2771   33.0320 C   0  0  0  0  0  0  0  0  0  0  0  0
   -0.6339   -4.9593   33.3430 C   0  0  0  0  0  0  0  0  0  0  0  0
   -0.8316   -6.2302   32.7451 C   0  0  0  0  0  0  0  0  0  0  0  0
   -1.4457   -7.4710   33.0723 C   0  0  0  0  0  0  0  0  0  0  0  0
   -1.8602   -7.7822   34.3201 N   0  0  0  0  0  0  0  0  0  0  0  0
   -1.4143   -8.3343   32.0515 N   0  0  0  0  0  0  0  0  0  0  0  0
   -0.6571   -7.6995   31.1632 N   0  0  0  0  0  0  0  0  0  0  0  0
   -0.3335   -8.3508   29.9953 O   0  0  0  0  0  0  0  0  0  0  0  0
   -0.0685   -6.5744   31.6408 C   0  0  0  0  0  0  0  0  0  0  0  0
    1.1070   -5.9079   31.3497 C   0  0  0  0  0  0  0  0  0  0  0  0
    1.4878   -5.0670   32.4003 C   0  0  0  0  0  0  0  0  0  0  0  0
    2.5323   -5.6010   33.4061 C   0  0  0  0  0  0  0  0  0  0  0  0
    1.8784   -6.4384   34.4407 N   0  0  0  0  0  0  0  0  0  0  0  0
    2.8990   -7.2460   35.5033 S   0  0  0  0  0  0  0  0  0  0  0  0
    4.0432   -6.4072   35.7777 O   0  0  0  0  0  0  0  0  0  0  0  0
    3.0157   -8.6042   35.0204 O   0  0  0  0  0  0  0  0  0  0  0  0
    2.0184   -7.3238   37.0073 C   0  0  0  0  0  0  0  0  0  0  0  0
    2.2017   -8.2823   38.0224 C   0  0  0  0  0  0  0  0  0  0  0  0
    1.3138   -7.9128   39.0070 C   0  0  0  0  0  0  0  0  0  0  0  0
    0.6780   -6.7926   38.5538 N   0  0  0  0  0  0  0  0  0  0  0  0
   -0.2864   -5.9923   39.2725 C   0  0  0  0  0  0  0  0  0  0  0  0
    1.0537   -6.4278   37.3098 N   0  0  0  0  0  0  0  0  0  0  0  0
    1.4978   -2.9950   34.9513 C   0  0  0  0  0  0  0  0  0  0  0  0
    2.3875   -1.9941   35.3539 C   0  0  0  0  0  0  0  0  0  0  0  0
    2.9484   -2.0200   36.6037 O   0  0  0  0  0  0  0  0  0  0  0  0
    3.6909   -3.2180   36.8466 C   0  0  0  0  0  0  0  0  0  0  0  0
    5.1458   -1.2254   34.6050 H   0  0  0  0  0  0  0  0  0  0  0  0
    4.9261   -0.4534   36.2173 H   0  0  0  0  0  0  0  0  0  0  0  0
    5.5268    0.4853   34.8477 H   0  0  0  0  0  0  0  0  0  0  0  0
    2.3395   -0.0727   32.5454 H   0  0  0  0  0  0  0  0  0  0  0  0
    0.9587   -1.9551   31.7499 H   0  0  0  0  0  0  0  0  0  0  0  0
   -1.2625   -4.6085   34.1529 H   0  0  0  0  0  0  0  0  0  0  0  0
   -1.3812   -7.3168   35.0848 H   0  0  0  0  0  0  0  0  0  0  0  0
   -1.8630   -8.7958   34.5021 H   0  0  0  0  0  0  0  0  0  0  0  0
   -0.0797   -9.2090   30.3871 H   0  0  0  0  0  0  0  0  0  0  0  0
    1.8168   -6.3207   30.6502 H   0  0  0  0  0  0  0  0  0  0  0  0
    3.2556   -6.1851   32.8635 H   0  0  0  0  0  0  0  0  0  0  0  0
    3.0865   -4.7755   33.8599 H   0  0  0  0  0  0  0  0  0  0  0  0
    1.1851   -5.9263   34.9929 H   0  0  0  0  0  0  0  0  0  0  0  0
    2.8875   -9.1186   38.0349 H   0  0  0  0  0  0  0  0  0  0  0  0
    1.0988   -8.3393   39.9780 H   0  0  0  0  0  0  0  0  0  0  0  0
   -1.1124   -5.7532   38.5989 H   0  0  0  0  0  0  0  0  0  0  0  0
    0.2125   -5.0783   39.6038 H   0  0  0  0  0  0  0  0  0  0  0  0
   -0.6545   -6.5559   40.1329 H   0  0  0  0  0  0  0  0  0  0  0  0
    1.2523   -3.7934   35.6442 H   0  0  0  0  0  0  0  0  0  0  0  0
    4.3751   -3.0225   37.6777 H   0  0  0  0  0  0  0  0  0  0  0  0
    3.0205   -4.0280   37.1475 H   0  0  0  0  0  0  0  0  0  0  0  0
    4.2902   -3.5100   35.9770 H   0  0  0  0  0  0  0  0  0  0  0  0
  1  2  1  0
  2  3  1  0
  3  4  2  0
  4  5  1  0
  5  6  2  0
  6  7  1  0
  7  8  2  0
  8  9  1  0
  9 10  1  0
 10 11  1  0
 10 12  2  0
 12 13  1  0
 13 14  1  0
 13 15  1  0
 15 16  1  0
 16 17  2  0
 17 18  1  0
 18 19  1  0
 19 20  1  0
 20 21  2  0
 20 22  2  0
 20 23  1  0
 23 24  1  0
 24 25  2  0
 25 26  1  0
 26 27  1  0
 26 28  1  0
  6 29  1  0
 29 30  2  0
 30 31  1  0
 31 32  1  0
 30  3  1  0
 17  7  1  0
 28 23  2  0
 15  9  2  0
  1 33  1  0
  1 34  1  0
  1 35  1  0
  4 36  1  0
  5 37  1  0
  8 38  1  0
 11 39  1  0
 11 40  1  0
 14 41  1  0
 16 42  1  0
 18 43  1  0
 18 44  1  0
 19 45  1  0
 24 46  1  0
 25 47  1  0
 27 48  1  0
 27 49  1  0
 27 50  1  0
 29 51  1  0
 32 52  1  0
 32 53  1  0
 32 54  1  0
M  END
>  <Energy>  (1052) 
67.074778749510301

>  <compound_id>  (1052) 
3854

>  <target_id>  (1052) 
1

>  <reference_id>  (1052) 
72

>  <inspiration_ids>  (1052) 
[133, 72]

>  <energy_score>  (1052) 
-24.40988966534769

>  <distance_score>  (1052) 
1.3408242001251072

>  <path>  (1052) 
/opt/xchem-fragalysis-2/maxwin/BulkDock/SCRATCH/505734/C3854-P72/C3854-P72.minimised.mol

>  <scratch_subdir>  (1052) 
/opt/xchem-fragalysis-2/maxwin/BulkDock/SCRATCH/505734/C3854-P72

>  <fragmenstein_runtime>  (1052) 
4.08745813369751

>  <fragmenstein_outcome>  (1052) 
too moved

>  <fragmenstein_mode>  (1052) 
expansion

>  <fragmenstein_error>  (1052) 


$$$$
C3837-P133
     RDKit          3D

 55 58  0  0  0  0  0  0  0  0999 V2000
    5.2165    0.1484   34.3731 C   0  0  0  0  0  0  0  0  0  0  0  0
    4.3052   -0.6168   35.1411 O   0  0  0  0  0  0  0  0  0  0  0  0
    3.5930   -1.5823   34.4891 C   0  0  0  0  0  0  0  0  0  0  0  0
    3.7101   -1.9084   33.1411 C   0  0  0  0  0  0  0  0  0  0  0  0
    2.9154   -2.9209   32.5908 C   0  0  0  0  0  0  0  0  0  0  0  0
    1.9146   -3.5475   33.3466 C   0  0  0  0  0  0  0  0  0  0  0  0
    0.9927   -4.5259   32.7133 C   0  0  0  0  0  0  0  0  0  0  0  0
    0.3535   -4.2364   31.3982 C   0  0  0  0  0  0  0  0  0  0  0  0
    0.1569   -2.7902   30.9550 C   0  0  0  0  0  0  0  0  0  0  0  0
   -0.7334   -2.1433   31.9391 N   0  0  0  0  0  0  0  0  0  0  0  0
   -0.5257   -0.4772   32.1614 S   0  0  0  0  0  0  0  0  0  0  0  0
   -1.5000   -0.0682   33.1508 O   0  0  0  0  0  0  0  0  0  0  0  0
    0.8851   -0.2080   32.3317 O   0  0  0  0  0  0  0  0  0  0  0  0
   -0.9619    0.3911   30.7152 C   0  0  0  0  0  0  0  0  0  0  0  0
   -1.4623    1.7134   30.7013 C   0  0  0  0  0  0  0  0  0  0  0  0
   -1.6524    2.0011   29.3705 C   0  0  0  0  0  0  0  0  0  0  0  0
   -1.2805    0.8806   28.6867 N   0  0  0  0  0  0  0  0  0  0  0  0
   -1.3229    0.6830   27.2598 C   0  0  0  0  0  0  0  0  0  0  0  0
   -0.8308   -0.1121   29.4740 N   0  0  0  0  0  0  0  0  0  0  0  0
   -0.1570   -5.2420   30.6575 C   0  0  0  0  0  0  0  0  0  0  0  0
   -0.4675   -6.4715   31.2909 C   0  0  0  0  0  0  0  0  0  0  0  0
   -1.1101   -7.5419   30.8783 N   0  0  0  0  0  0  0  0  0  0  0  0
   -1.4427   -8.2711   31.9951 N   0  0  0  0  0  0  0  0  0  0  0  0
   -0.9941   -7.6360   33.0591 C   0  0  0  0  0  0  0  0  0  0  0  0
   -1.3022   -7.8930   34.3499 N   0  0  0  0  0  0  0  0  0  0  0  0
   -0.1994   -6.5757   32.6463 N   0  0  0  0  0  0  0  0  0  0  0  0
    0.6809   -5.7067   33.3221 C   0  0  0  0  0  0  0  0  0  0  0  0
    1.3138   -6.2184   34.5940 C   0  0  0  0  0  0  0  0  0  0  0  0
    1.7863   -3.1945   34.6912 C   0  0  0  0  0  0  0  0  0  0  0  0
    2.6806   -2.2974   35.2676 C   0  0  0  0  0  0  0  0  0  0  0  0
    2.6229   -2.1582   36.6306 O   0  0  0  0  0  0  0  0  0  0  0  0
    3.7326   -2.8379   37.2273 C   0  0  0  0  0  0  0  0  0  0  0  0
    5.6819    0.8830   35.0374 H   0  0  0  0  0  0  0  0  0  0  0  0
    6.0144   -0.4802   33.9639 H   0  0  0  0  0  0  0  0  0  0  0  0
    4.7021    0.6993   33.5786 H   0  0  0  0  0  0  0  0  0  0  0  0
    4.4181   -1.4054   32.4912 H   0  0  0  0  0  0  0  0  0  0  0  0
    3.0702   -3.1804   31.5460 H   0  0  0  0  0  0  0  0  0  0  0  0
    1.1096   -2.2740   30.8359 H   0  0  0  0  0  0  0  0  0  0  0  0
   -0.3408   -2.7557   29.9790 H   0  0  0  0  0  0  0  0  0  0  0  0
   -0.7365   -2.5694   32.8654 H   0  0  0  0  0  0  0  0  0  0  0  0
   -1.6562    2.3547   31.5501 H   0  0  0  0  0  0  0  0  0  0  0  0
   -2.0229    2.8838   28.8680 H   0  0  0  0  0  0  0  0  0  0  0  0
   -1.7740   -0.2902   27.0578 H   0  0  0  0  0  0  0  0  0  0  0  0
   -0.2957    0.7244   26.8953 H   0  0  0  0  0  0  0  0  0  0  0  0
   -1.9211    1.4727   26.7991 H   0  0  0  0  0  0  0  0  0  0  0  0
   -0.5649   -5.0552   29.6700 H   0  0  0  0  0  0  0  0  0  0  0  0
   -0.7534   -7.5396   35.1211 H   0  0  0  0  0  0  0  0  0  0  0  0
   -1.5677   -8.8713   34.5461 H   0  0  0  0  0  0  0  0  0  0  0  0
    0.6924   -5.9821   35.4629 H   0  0  0  0  0  0  0  0  0  0  0  0
    1.4573   -7.3041   34.5526 H   0  0  0  0  0  0  0  0  0  0  0  0
    2.3171   -5.8135   34.7576 H   0  0  0  0  0  0  0  0  0  0  0  0
    1.0169   -3.6267   35.3243 H   0  0  0  0  0  0  0  0  0  0  0  0
    3.5522   -2.8799   38.3058 H   0  0  0  0  0  0  0  0  0  0  0  0
    4.6685   -2.2937   37.0670 H   0  0  0  0  0  0  0  0  0  0  0  0
    3.8202   -3.8679   36.8619 H   0  0  0  0  0  0  0  0  0  0  0  0
  1  2  1  0
  2  3  1  0
  3  4  2  0
  4  5  1  0
  5  6  2  0
  6  7  1  0
  7  8  1  0
  8  9  1  0
  9 10  1  0
 10 11  1  0
 11 12  2  0
 11 13  2  0
 11 14  1  0
 14 15  1  0
 15 16  2  0
 16 17  1  0
 17 18  1  0
 17 19  1  0
  8 20  2  0
 20 21  1  0
 21 22  2  0
 22 23  1  0
 23 24  2  0
 24 25  1  0
 24 26  1  0
 26 27  1  0
 27 28  1  0
  6 29  1  0
 29 30  2  0
 30 31  1  0
 31 32  1  0
 30  3  1  0
 27  7  2  0
 19 14  2  0
 26 21  1  0
  1 33  1  0
  1 34  1  0
  1 35  1  0
  4 36  1  0
  5 37  1  0
  9 38  1  0
  9 39  1  0
 10 40  1  0
 15 41  1  0
 16 42  1  0
 18 43  1  0
 18 44  1  0
 18 45  1  0
 20 46  1  0
 25 47  1  0
 25 48  1  0
 28 49  1  0
 28 50  1  0
 28 51  1  0
 29 52  1  0
 32 53  1  0
 32 54  1  0
 32 55  1  0
M  END
>  <Energy>  (1053) 
98.769842097790089

>  <compound_id>  (1053) 
3837

>  <target_id>  (1053) 
1

>  <reference_id>  (1053) 
133

>  <inspiration_ids>  (1053) 
[133, 78]

>  <energy_score>  (1053) 
-62.14750045075971

>  <distance_score>  (1053) 
1.0836157948713394

>  <path>  (1053) 
/opt/xchem-fragalysis-2/maxwin/BulkDock/SCRATCH/505734/C3837-P133/C3837-P133.minimised.mol

>  <scratch_subdir>  (1053) 
/opt/xchem-fragalysis-2/maxwin/BulkDock/SCRATCH/505734/C3837-P133

>  <fragmenstein_runtime>  (1053) 
6.4823126792907715

>  <fragmenstein_outcome>  (1053) 
too moved

>  <fragmenstein_mode>  (1053) 
expansion

>  <fragmenstein_error>  (1053) 


$$$$
C3837-P78
     RDKit          3D

 55 58  0  0  0  0  0  0  0  0999 V2000
    4.8523    0.0100   34.8704 C   0  0  0  0  0  0  0  0  0  0  0  0
    3.4247   -0.0337   34.8686 O   0  0  0  0  0  0  0  0  0  0  0  0
    2.9325   -1.2238   34.3986 C   0  0  0  0  0  0  0  0  0  0  0  0
    1.9926   -1.1228   33.3742 C   0  0  0  0  0  0  0  0  0  0  0  0
    1.4227   -2.2741   32.8380 C   0  0  0  0  0  0  0  0  0  0  0  0
    1.8344   -3.5380   33.2835 C   0  0  0  0  0  0  0  0  0  0  0  0
    1.2393   -4.7496   32.6736 C   0  0  0  0  0  0  0  0  0  0  0  0
    1.4331   -5.1073   31.2436 C   0  0  0  0  0  0  0  0  0  0  0  0
    2.5071   -4.5598   30.3079 C   0  0  0  0  0  0  0  0  0  0  0  0
    3.1519   -3.3374   30.7423 N   0  0  0  0  0  0  0  0  0  0  0  0
    3.6241   -2.2560   29.5453 S   0  0  0  0  0  0  0  0  0  0  0  0
    4.3909   -1.2173   30.1974 O   0  0  0  0  0  0  0  0  0  0  0  0
    4.1605   -3.0263   28.4423 O   0  0  0  0  0  0  0  0  0  0  0  0
    2.2126   -1.4522   28.8974 C   0  0  0  0  0  0  0  0  0  0  0  0
    2.2407   -0.1998   28.2436 C   0  0  0  0  0  0  0  0  0  0  0  0
    0.9315    0.0455   27.9023 C   0  0  0  0  0  0  0  0  0  0  0  0
    0.2165   -1.0375   28.3270 N   0  0  0  0  0  0  0  0  0  0  0  0
   -1.2055   -1.2422   28.1827 C   0  0  0  0  0  0  0  0  0  0  0  0
    0.9651   -1.9602   28.9653 N   0  0  0  0  0  0  0  0  0  0  0  0
    0.6558   -6.0657   30.6971 C   0  0  0  0  0  0  0  0  0  0  0  0
   -0.2705   -6.8010   31.4563 C   0  0  0  0  0  0  0  0  0  0  0  0
   -1.1081   -7.7515   31.1128 N   0  0  0  0  0  0  0  0  0  0  0  0
   -1.6858   -8.2139   32.2604 N   0  0  0  0  0  0  0  0  0  0  0  0
   -1.1947   -7.5425   33.2817 C   0  0  0  0  0  0  0  0  0  0  0  0
   -1.4619   -7.8007   34.5871 N   0  0  0  0  0  0  0  0  0  0  0  0
   -0.3152   -6.5657   32.8196 N   0  0  0  0  0  0  0  0  0  0  0  0
    0.4165   -5.5264   33.4456 C   0  0  0  0  0  0  0  0  0  0  0  0
    0.1750   -5.3003   34.9169 C   0  0  0  0  0  0  0  0  0  0  0  0
    2.7741   -3.6304   34.3216 C   0  0  0  0  0  0  0  0  0  0  0  0
    3.2722   -2.4762   34.9310 C   0  0  0  0  0  0  0  0  0  0  0  0
    4.0727   -2.4791   36.0396 O   0  0  0  0  0  0  0  0  0  0  0  0
    4.1115   -3.6662   36.8167 C   0  0  0  0  0  0  0  0  0  0  0  0
    5.2392   -0.2813   35.8511 H   0  0  0  0  0  0  0  0  0  0  0  0
    5.2987   -0.6032   34.0787 H   0  0  0  0  0  0  0  0  0  0  0  0
    5.1507    1.0481   34.6938 H   0  0  0  0  0  0  0  0  0  0  0  0
    1.7042   -0.1455   32.9966 H   0  0  0  0  0  0  0  0  0  0  0  0
    0.6861   -2.1792   32.0419 H   0  0  0  0  0  0  0  0  0  0  0  0
    3.2902   -5.3219   30.2077 H   0  0  0  0  0  0  0  0  0  0  0  0
    2.0623   -4.4261   29.3145 H   0  0  0  0  0  0  0  0  0  0  0  0
    3.8468   -3.4060   31.4816 H   0  0  0  0  0  0  0  0  0  0  0  0
    3.0994    0.4305   28.0576 H   0  0  0  0  0  0  0  0  0  0  0  0
    0.4598    0.8738   27.3928 H   0  0  0  0  0  0  0  0  0  0  0  0
   -1.6875   -0.9210   29.1090 H   0  0  0  0  0  0  0  0  0  0  0  0
   -1.3859   -2.3032   28.0093 H   0  0  0  0  0  0  0  0  0  0  0  0
   -1.5727   -0.6534   27.3390 H   0  0  0  0  0  0  0  0  0  0  0  0
    0.7879   -6.3545   29.6697 H   0  0  0  0  0  0  0  0  0  0  0  0
   -0.7091   -7.6588   35.2509 H   0  0  0  0  0  0  0  0  0  0  0  0
   -1.7620   -8.7821   34.7022 H   0  0  0  0  0  0  0  0  0  0  0  0
   -0.8935   -5.3543   35.1505 H   0  0  0  0  0  0  0  0  0  0  0  0
    0.7134   -6.0453   35.5112 H   0  0  0  0  0  0  0  0  0  0  0  0
    0.4697   -4.3131   35.2782 H   0  0  0  0  0  0  0  0  0  0  0  0
    3.0758   -4.6135   34.6666 H   0  0  0  0  0  0  0  0  0  0  0  0
    4.6406   -3.4404   37.7475 H   0  0  0  0  0  0  0  0  0  0  0  0
    4.6712   -4.4518   36.2991 H   0  0  0  0  0  0  0  0  0  0  0  0
    3.1048   -4.0084   37.0800 H   0  0  0  0  0  0  0  0  0  0  0  0
  1  2  1  0
  2  3  1  0
  3  4  2  0
  4  5  1  0
  5  6  2  0
  6  7  1  0
  7  8  1  0
  8  9  1  0
  9 10  1  0
 10 11  1  0
 11 12  2  0
 11 13  2  0
 11 14  1  0
 14 15  1  0
 15 16  2  0
 16 17  1  0
 17 18  1  0
 17 19  1  0
  8 20  2  0
 20 21  1  0
 21 22  2  0
 22 23  1  0
 23 24  2  0
 24 25  1  0
 24 26  1  0
 26 27  1  0
 27 28  1  0
  6 29  1  0
 29 30  2  0
 30 31  1  0
 31 32  1  0
 30  3  1  0
 27  7  2  0
 19 14  2  0
 26 21  1  0
  1 33  1  0
  1 34  1  0
  1 35  1  0
  4 36  1  0
  5 37  1  0
  9 38  1  0
  9 39  1  0
 10 40  1  0
 15 41  1  0
 16 42  1  0
 18 43  1  0
 18 44  1  0
 18 45  1  0
 20 46  1  0
 25 47  1  0
 25 48  1  0
 28 49  1  0
 28 50  1  0
 28 51  1  0
 29 52  1  0
 32 53  1  0
 32 54  1  0
 32 55  1  0
M  END
>  <Energy>  (1054) 
93.575638633304038

>  <compound_id>  (1054) 
3837

>  <target_id>  (1054) 
1

>  <reference_id>  (1054) 
78

>  <inspiration_ids>  (1054) 
[133, 78]

>  <energy_score>  (1054) 
-67.34170391524395

>  <distance_score>  (1054) 
1.1443903355270293

>  <path>  (1054) 
/opt/xchem-fragalysis-2/maxwin/BulkDock/SCRATCH/505734/C3837-P78/C3837-P78.minimised.mol

>  <scratch_subdir>  (1054) 
/opt/xchem-fragalysis-2/maxwin/BulkDock/SCRATCH/505734/C3837-P78

>  <fragmenstein_runtime>  (1054) 
3.6181511878967285

>  <fragmenstein_outcome>  (1054) 
too moved

>  <fragmenstein_mode>  (1054) 
expansion

>  <fragmenstein_error>  (1054) 


$$$$
C3855-P133
     RDKit          3D

 47 50  0  0  0  0  0  0  0  0999 V2000
    4.6771   -0.7720   32.9303 C   0  0  0  0  0  0  0  0  0  0  0  0
    3.4729   -1.2001   32.3048 O   0  0  0  0  0  0  0  0  0  0  0  0
    3.2106   -2.5422   32.2720 C   0  0  0  0  0  0  0  0  0  0  0  0
    2.2499   -2.9172   31.3205 C   0  0  0  0  0  0  0  0  0  0  0  0
    1.7812   -4.2409   31.2210 C   0  0  0  0  0  0  0  0  0  0  0  0
    2.2885   -5.2370   32.0609 C   0  0  0  0  0  0  0  0  0  0  0  0
    1.5093   -6.5059   32.2918 C   0  0  0  0  0  0  0  0  0  0  0  0
    1.1989   -6.5821   33.6155 C   0  0  0  0  0  0  0  0  0  0  0  0
   -0.0359   -7.0577   33.9945 N   0  0  0  0  0  0  0  0  0  0  0  0
   -0.6172   -7.2576   35.2273 C   0  0  0  0  0  0  0  0  0  0  0  0
    0.0559   -7.1517   36.3939 N   0  0  0  0  0  0  0  0  0  0  0  0
   -1.8736   -7.5921   35.0549 N   0  0  0  0  0  0  0  0  0  0  0  0
   -2.0888   -7.7123   33.7069 N   0  0  0  0  0  0  0  0  0  0  0  0
   -1.0206   -7.3050   33.0791 C   0  0  0  0  0  0  0  0  0  0  0  0
   -0.7019   -7.2437   31.6975 C   0  0  0  0  0  0  0  0  0  0  0  0
    0.6059   -7.2810   31.3229 C   0  0  0  0  0  0  0  0  0  0  0  0
    0.9898   -7.8318   30.0174 N   0  0  0  0  0  0  0  0  0  0  0  0
    1.7698   -9.5576   29.3789 N   0  0  0  0  0  0  0  0  0  0  0  0
    2.1984  -11.7295   30.1448 S   0  0  0  0  0  0  0  0  0  0  0  0
    2.5699  -12.1112   31.5031 O   0  0  0  0  0  0  0  0  0  0  0  0
    3.1057  -12.2604   29.1565 O   0  0  0  0  0  0  0  0  0  0  0  0
   -0.1717  -11.4389   30.4760 C   0  0  0  0  0  0  0  0  0  0  0  0
   -0.7811  -10.1483   30.7782 C   0  0  0  0  0  0  0  0  0  0  0  0
   -0.8496   -9.5170   29.1897 S   0  0  0  0  0  0  0  0  0  0  0  0
   -2.0062  -11.1767   28.8841 C   0  0  0  0  0  0  0  0  0  0  0  0
   -1.5975  -11.8480   29.8586 N   0  0  0  0  0  0  0  0  0  0  0  0
    3.3309   -4.8668   32.9431 C   0  0  0  0  0  0  0  0  0  0  0  0
    3.7309   -3.5317   33.1029 C   0  0  0  0  0  0  0  0  0  0  0  0
    4.6124   -3.2547   34.1168 O   0  0  0  0  0  0  0  0  0  0  0  0
    3.9318   -3.1981   35.3755 C   0  0  0  0  0  0  0  0  0  0  0  0
    4.8690    0.2550   32.6038 H   0  0  0  0  0  0  0  0  0  0  0  0
    5.5367   -1.3766   32.6227 H   0  0  0  0  0  0  0  0  0  0  0  0
    4.5630   -0.7490   34.0173 H   0  0  0  0  0  0  0  0  0  0  0  0
    1.8158   -2.1523   30.6776 H   0  0  0  0  0  0  0  0  0  0  0  0
    0.9616   -4.4467   30.5363 H   0  0  0  0  0  0  0  0  0  0  0  0
    1.7149   -6.0792   34.4249 H   0  0  0  0  0  0  0  0  0  0  0  0
   -0.4464   -7.6074   37.1566 H   0  0  0  0  0  0  0  0  0  0  0  0
    1.0168   -7.4734   36.4117 H   0  0  0  0  0  0  0  0  0  0  0  0
   -1.5220   -7.5048   31.0472 H   0  0  0  0  0  0  0  0  0  0  0  0
    0.1128   -7.8474   29.4949 H   0  0  0  0  0  0  0  0  0  0  0  0
    0.8126   -9.9153   29.2584 H   0  0  0  0  0  0  0  0  0  0  0  0
   -0.6727   -9.5370   31.6440 H   0  0  0  0  0  0  0  0  0  0  0  0
   -2.5493  -11.5599   28.0214 H   0  0  0  0  0  0  0  0  0  0  0  0
    3.7733   -5.6041   33.6103 H   0  0  0  0  0  0  0  0  0  0  0  0
    3.6170   -4.1973   35.6942 H   0  0  0  0  0  0  0  0  0  0  0  0
    3.0712   -2.5208   35.3369 H   0  0  0  0  0  0  0  0  0  0  0  0
    4.6361   -2.8114   36.1180 H   0  0  0  0  0  0  0  0  0  0  0  0
  1  2  1  0
  2  3  1  0
  3  4  2  0
  4  5  1  0
  5  6  2  0
  6  7  1  0
  7  8  2  0
  8  9  1  0
  9 10  1  0
 10 11  1  0
 10 12  2  0
 12 13  1  0
 13 14  2  0
 14 15  1  0
 15 16  2  0
 16 17  1  0
 17 18  1  0
 18 19  1  0
 19 20  2  0
 19 21  2  0
 19 22  1  0
 22 23  2  0
 23 24  1  0
 24 25  1  0
 25 26  2  0
  6 27  1  0
 27 28  2  0
 28 29  1  0
 29 30  1  0
 28  3  1  0
 16  7  1  0
 26 22  1  0
 14  9  1  0
  1 31  1  0
  1 32  1  0
  1 33  1  0
  4 34  1  0
  5 35  1  0
  8 36  1  0
 11 37  1  0
 11 38  1  0
 15 39  1  0
 17 40  1  0
 18 41  1  0
 23 42  1  0
 25 43  1  0
 27 44  1  0
 30 45  1  0
 30 46  1  0
 30 47  1  0
M  END
>  <Energy>  (1055) 
694.53536227411121

>  <compound_id>  (1055) 
3855

>  <target_id>  (1055) 
1

>  <reference_id>  (1055) 
133

>  <inspiration_ids>  (1055) 
[133, 116]

>  <energy_score>  (1055) 
411.15827181818236

>  <distance_score>  (1055) 
2.335765667373618

>  <path>  (1055) 
/opt/xchem-fragalysis-2/maxwin/BulkDock/SCRATCH/505734/C3855-P133/C3855-P133.minimised.mol

>  <scratch_subdir>  (1055) 
/opt/xchem-fragalysis-2/maxwin/BulkDock/SCRATCH/505734/C3855-P133

>  <fragmenstein_runtime>  (1055) 
6.233743667602539

>  <fragmenstein_outcome>  (1055) 
too moved

>  <fragmenstein_mode>  (1055) 
expansion

>  <fragmenstein_error>  (1055) 


$$$$
C3855-P116
     RDKit          3D

 47 50  0  0  0  0  0  0  0  0999 V2000
    5.1811   -0.0252   33.6223 C   0  0  0  0  0  0  0  0  0  0  0  0
    5.5417   -1.3976   33.5277 O   0  0  0  0  0  0  0  0  0  0  0  0
    4.5604   -2.3276   33.7182 C   0  0  0  0  0  0  0  0  0  0  0  0
    4.8942   -3.6095   33.2631 C   0  0  0  0  0  0  0  0  0  0  0  0
    4.0306   -4.7025   33.4366 C   0  0  0  0  0  0  0  0  0  0  0  0
    2.7867   -4.5226   34.0299 C   0  0  0  0  0  0  0  0  0  0  0  0
    1.8342   -5.6171   34.3734 C   0  0  0  0  0  0  0  0  0  0  0  0
    1.6236   -5.6307   35.7084 C   0  0  0  0  0  0  0  0  0  0  0  0
    0.3061   -5.4841   36.1068 N   0  0  0  0  0  0  0  0  0  0  0  0
   -0.2350   -5.2572   37.3493 C   0  0  0  0  0  0  0  0  0  0  0  0
    0.4167   -5.5241   38.4990 N   0  0  0  0  0  0  0  0  0  0  0  0
   -1.4344   -4.7550   37.2023 N   0  0  0  0  0  0  0  0  0  0  0  0
   -1.7322   -4.7657   35.8628 N   0  0  0  0  0  0  0  0  0  0  0  0
   -0.7247   -5.2826   35.2042 C   0  0  0  0  0  0  0  0  0  0  0  0
   -0.5360   -5.7608   33.8712 C   0  0  0  0  0  0  0  0  0  0  0  0
    0.7148   -6.1225   33.5170 C   0  0  0  0  0  0  0  0  0  0  0  0
    1.0264   -7.1393   32.6124 N   0  0  0  0  0  0  0  0  0  0  0  0
    0.1927   -7.5602   31.4139 N   0  0  0  0  0  0  0  0  0  0  0  0
   -0.7681   -8.9761   31.3744 S   0  0  0  0  0  0  0  0  0  0  0  0
   -0.8459   -9.6345   32.6645 O   0  0  0  0  0  0  0  0  0  0  0  0
   -2.0034   -8.3830   30.8918 O   0  0  0  0  0  0  0  0  0  0  0  0
   -0.5155  -10.3210   30.1627 C   0  0  0  0  0  0  0  0  0  0  0  0
    0.3720  -10.5050   29.1219 C   0  0  0  0  0  0  0  0  0  0  0  0
    0.0877  -11.9271   28.1971 S   0  0  0  0  0  0  0  0  0  0  0  0
   -1.2497  -12.2252   29.1837 C   0  0  0  0  0  0  0  0  0  0  0  0
   -1.4606  -11.3537   30.1442 N   0  0  0  0  0  0  0  0  0  0  0  0
    2.4298   -3.2150   34.4227 C   0  0  0  0  0  0  0  0  0  0  0  0
    3.3331   -2.1535   34.3477 C   0  0  0  0  0  0  0  0  0  0  0  0
    2.9720   -0.9740   34.9391 O   0  0  0  0  0  0  0  0  0  0  0  0
    3.1079   -1.0781   36.3614 C   0  0  0  0  0  0  0  0  0  0  0  0
    4.2706    0.1998   33.0570 H   0  0  0  0  0  0  0  0  0  0  0  0
    5.9924    0.5587   33.1758 H   0  0  0  0  0  0  0  0  0  0  0  0
    5.0994    0.2840   34.6680 H   0  0  0  0  0  0  0  0  0  0  0  0
    5.8676   -3.7682   32.8011 H   0  0  0  0  0  0  0  0  0  0  0  0
    4.3789   -5.6777   33.1262 H   0  0  0  0  0  0  0  0  0  0  0  0
    2.3466   -5.3195   36.4565 H   0  0  0  0  0  0  0  0  0  0  0  0
    0.9870   -6.3638   38.5389 H   0  0  0  0  0  0  0  0  0  0  0  0
   -0.1825   -5.4634   39.3223 H   0  0  0  0  0  0  0  0  0  0  0  0
   -1.4089   -6.0880   33.3209 H   0  0  0  0  0  0  0  0  0  0  0  0
    1.1675   -8.0268   33.1407 H   0  0  0  0  0  0  0  0  0  0  0  0
   -0.2902   -6.7780   30.9387 H   0  0  0  0  0  0  0  0  0  0  0  0
    1.2215   -9.9755   28.7707 H   0  0  0  0  0  0  0  0  0  0  0  0
   -1.8832  -13.0810   29.0177 H   0  0  0  0  0  0  0  0  0  0  0  0
    1.4556   -3.0170   34.8706 H   0  0  0  0  0  0  0  0  0  0  0  0
    4.0991   -1.4499   36.6454 H   0  0  0  0  0  0  0  0  0  0  0  0
    2.3233   -1.7131   36.7862 H   0  0  0  0  0  0  0  0  0  0  0  0
    2.9915   -0.0737   36.7796 H   0  0  0  0  0  0  0  0  0  0  0  0
  1  2  1  0
  2  3  1  0
  3  4  2  0
  4  5  1  0
  5  6  2  0
  6  7  1  0
  7  8  2  0
  8  9  1  0
  9 10  1  0
 10 11  1  0
 10 12  2  0
 12 13  1  0
 13 14  2  0
 14 15  1  0
 15 16  2  0
 16 17  1  0
 17 18  1  0
 18 19  1  0
 19 20  2  0
 19 21  2  0
 19 22  1  0
 22 23  2  0
 23 24  1  0
 24 25  1  0
 25 26  2  0
  6 27  1  0
 27 28  2  0
 28 29  1  0
 29 30  1  0
 28  3  1  0
 16  7  1  0
 26 22  1  0
 14  9  1  0
  1 31  1  0
  1 32  1  0
  1 33  1  0
  4 34  1  0
  5 35  1  0
  8 36  1  0
 11 37  1  0
 11 38  1  0
 15 39  1  0
 17 40  1  0
 18 41  1  0
 23 42  1  0
 25 43  1  0
 27 44  1  0
 30 45  1  0
 30 46  1  0
 30 47  1  0
M  END
>  <Energy>  (1056) 
227.18750035931933

>  <compound_id>  (1056) 
3855

>  <target_id>  (1056) 
1

>  <reference_id>  (1056) 
116

>  <inspiration_ids>  (1056) 
[133, 116]

>  <energy_score>  (1056) 
-56.18959009661489

>  <distance_score>  (1056) 
3.2613672254314303

>  <path>  (1056) 
/opt/xchem-fragalysis-2/maxwin/BulkDock/SCRATCH/505734/C3855-P116/C3855-P116.minimised.mol

>  <scratch_subdir>  (1056) 
/opt/xchem-fragalysis-2/maxwin/BulkDock/SCRATCH/505734/C3855-P116

>  <fragmenstein_runtime>  (1056) 
7.539506196975708

>  <fragmenstein_outcome>  (1056) 
too moved

>  <fragmenstein_mode>  (1056) 
expansion

>  <fragmenstein_error>  (1056) 


$$$$
C2223-P133
     RDKit          3D

 50 52  0  0  0  0  0  0  0  0999 V2000
    3.1765    0.4461   31.6173 C   0  0  0  0  0  0  0  0  0  0  0  0
    2.2553   -0.7344   31.7446 C   0  0  0  0  0  0  0  0  0  0  0  0
    2.6908   -1.6594   32.7226 C   0  0  0  0  0  0  0  0  0  0  0  0
    1.8841   -2.6917   33.1563 C   0  0  0  0  0  0  0  0  0  0  0  0
    0.5855   -2.7722   32.6787 C   0  0  0  0  0  0  0  0  0  0  0  0
   -0.4797   -3.6319   33.3711 C   0  0  0  0  0  0  0  0  0  0  0  0
    0.0512   -4.4422   34.5618 N   0  0  0  0  0  0  0  0  0  0  0  0
   -0.4352   -3.2204   35.2823 C   0  0  0  0  0  0  0  0  0  0  0  0
   -0.4874   -5.8558   34.5458 C   0  0  0  0  0  0  0  0  0  0  0  0
   -1.4576   -6.3045   35.0312 O   0  0  0  0  0  0  0  0  0  0  0  0
    0.4290   -6.6781   33.6594 C   0  0  0  0  0  0  0  0  0  0  0  0
   -0.2903   -7.1843   32.5142 N   0  0  0  0  0  0  0  0  0  0  0  0
   -0.0386   -6.9391   31.2014 C   0  0  0  0  0  0  0  0  0  0  0  0
   -0.8860   -7.6172   30.4627 N   0  0  0  0  0  0  0  0  0  0  0  0
   -1.7203   -8.2985   31.3113 N   0  0  0  0  0  0  0  0  0  0  0  0
   -1.3604   -8.0194   32.5404 C   0  0  0  0  0  0  0  0  0  0  0  0
    0.2080   -1.9479   31.6035 C   0  0  0  0  0  0  0  0  0  0  0  0
    1.0281   -0.9384   31.0503 C   0  0  0  0  0  0  0  0  0  0  0  0
    0.4794   -0.2197   29.9671 N   0  0  0  0  0  0  0  0  0  0  0  0
   -0.1494   -1.0374   28.8800 C   0  0  0  0  0  0  0  0  0  0  0  0
   -1.2718   -0.2311   28.2370 C   0  0  0  0  0  0  0  0  0  0  0  0
   -0.7046    1.0285   27.6080 C   0  0  0  0  0  0  0  0  0  0  0  0
   -1.7326    1.8251   27.0188 O   0  0  0  0  0  0  0  0  0  0  0  0
    0.0818    1.8396   28.6264 C   0  0  0  0  0  0  0  0  0  0  0  0
    1.0876    1.0080   29.4357 C   0  0  0  0  0  0  0  0  0  0  0  0
    2.6848    1.3498   31.9895 H   0  0  0  0  0  0  0  0  0  0  0  0
    3.4874    0.5803   30.5778 H   0  0  0  0  0  0  0  0  0  0  0  0
    4.1014    0.3292   32.1938 H   0  0  0  0  0  0  0  0  0  0  0  0
    3.6604   -1.5365   33.2034 H   0  0  0  0  0  0  0  0  0  0  0  0
    2.2405   -3.3342   33.9567 H   0  0  0  0  0  0  0  0  0  0  0  0
   -1.4645   -3.1351   33.4485 H   0  0  0  0  0  0  0  0  0  0  0  0
   -0.7004   -4.3937   32.6086 H   0  0  0  0  0  0  0  0  0  0  0  0
   -0.1090   -3.4148   36.3153 H   0  0  0  0  0  0  0  0  0  0  0  0
   -1.5287   -3.1831   35.3974 H   0  0  0  0  0  0  0  0  0  0  0  0
    0.0355   -2.2550   35.0549 H   0  0  0  0  0  0  0  0  0  0  0  0
    0.8052   -7.5291   34.2345 H   0  0  0  0  0  0  0  0  0  0  0  0
    1.2893   -6.1022   33.3041 H   0  0  0  0  0  0  0  0  0  0  0  0
    0.7453   -6.2898   30.8376 H   0  0  0  0  0  0  0  0  0  0  0  0
   -1.8304   -8.3860   33.4440 H   0  0  0  0  0  0  0  0  0  0  0  0
   -0.8208   -2.0348   31.2541 H   0  0  0  0  0  0  0  0  0  0  0  0
   -0.5739   -1.9841   29.2252 H   0  0  0  0  0  0  0  0  0  0  0  0
    0.6174   -1.2987   28.1395 H   0  0  0  0  0  0  0  0  0  0  0  0
   -2.0044    0.0356   29.0053 H   0  0  0  0  0  0  0  0  0  0  0  0
   -1.8003   -0.8271   27.4863 H   0  0  0  0  0  0  0  0  0  0  0  0
   -0.0230    0.7497   26.8035 H   0  0  0  0  0  0  0  0  0  0  0  0
   -2.3961    2.0443   27.7006 H   0  0  0  0  0  0  0  0  0  0  0  0
   -0.6144    2.3311   29.3060 H   0  0  0  0  0  0  0  0  0  0  0  0
    0.6054    2.6603   28.1203 H   0  0  0  0  0  0  0  0  0  0  0  0
    1.9499    0.7559   28.8073 H   0  0  0  0  0  0  0  0  0  0  0  0
    1.4218    1.6598   30.2457 H   0  0  0  0  0  0  0  0  0  0  0  0
  1  2  1  0
  2  3  2  0
  3  4  1  0
  4  5  2  0
  5  6  1  0
  6  7  1  0
  7  8  1  0
  7  9  1  0
  9 10  2  0
  9 11  1  0
 11 12  1  0
 12 13  1  0
 13 14  2  0
 14 15  1  0
 15 16  2  0
  5 17  1  0
 17 18  2  0
 18 19  1  0
 19 20  1  0
 20 21  1  0
 21 22  1  0
 22 23  1  0
 22 24  1  0
 24 25  1  0
 18  2  1  0
 25 19  1  0
 16 12  1  0
  1 26  1  0
  1 27  1  0
  1 28  1  0
  3 29  1  0
  4 30  1  0
  6 31  1  0
  6 32  1  0
  8 33  1  0
  8 34  1  0
  8 35  1  0
 11 36  1  0
 11 37  1  0
 13 38  1  0
 16 39  1  0
 17 40  1  0
 20 41  1  0
 20 42  1  0
 21 43  1  0
 21 44  1  0
 22 45  1  0
 23 46  1  0
 24 47  1  0
 24 48  1  0
 25 49  1  0
 25 50  1  0
M  END
>  <Energy>  (1057) 
103.48366977765556

>  <compound_id>  (1057) 
2223

>  <target_id>  (1057) 
1

>  <reference_id>  (1057) 
133

>  <inspiration_ids>  (1057) 
[133, 141]

>  <energy_score>  (1057) 
52.548887737799305

>  <distance_score>  (1057) 
2.3875241758011487

>  <path>  (1057) 
/opt/xchem-fragalysis-2/maxwin/BulkDock/SCRATCH/505734/C2223-P133/C2223-P133.minimised.mol

>  <scratch_subdir>  (1057) 
/opt/xchem-fragalysis-2/maxwin/BulkDock/SCRATCH/505734/C2223-P133

>  <fragmenstein_runtime>  (1057) 
8.488934516906738

>  <fragmenstein_outcome>  (1057) 
too moved

>  <fragmenstein_mode>  (1057) 
expansion

>  <fragmenstein_error>  (1057) 


$$$$
C2223-P141
     RDKit          3D

 50 52  0  0  0  0  0  0  0  0999 V2000
    4.2152    1.8895   31.3083 C   0  0  0  0  0  0  0  0  0  0  0  0
    3.4031    0.6412   31.1117 C   0  0  0  0  0  0  0  0  0  0  0  0
    3.6407   -0.4607   31.9569 C   0  0  0  0  0  0  0  0  0  0  0  0
    2.8244   -1.5869   31.9078 C   0  0  0  0  0  0  0  0  0  0  0  0
    1.7720   -1.6190   30.9962 C   0  0  0  0  0  0  0  0  0  0  0  0
    0.6674   -2.6469   31.0640 C   0  0  0  0  0  0  0  0  0  0  0  0
   -0.0364   -2.9663   32.3863 N   0  0  0  0  0  0  0  0  0  0  0  0
   -0.4686   -1.5403   32.2571 C   0  0  0  0  0  0  0  0  0  0  0  0
   -0.7689   -4.1627   32.2646 C   0  0  0  0  0  0  0  0  0  0  0  0
   -1.9058   -4.3484   31.9379 O   0  0  0  0  0  0  0  0  0  0  0  0
    0.0770   -5.3524   32.7128 C   0  0  0  0  0  0  0  0  0  0  0  0
   -0.2997   -6.5434   31.9816 N   0  0  0  0  0  0  0  0  0  0  0  0
   -0.0366   -6.7952   30.6715 C   0  0  0  0  0  0  0  0  0  0  0  0
   -0.6336   -7.9069   30.3116 N   0  0  0  0  0  0  0  0  0  0  0  0
   -1.2886   -8.3999   31.4147 N   0  0  0  0  0  0  0  0  0  0  0  0
   -1.0728   -7.5735   32.4139 C   0  0  0  0  0  0  0  0  0  0  0  0
    1.6080   -0.5757   30.0766 C   0  0  0  0  0  0  0  0  0  0  0  0
    2.3693    0.5896   30.1550 C   0  0  0  0  0  0  0  0  0  0  0  0
    2.0362    1.7087   29.3681 N   0  0  0  0  0  0  0  0  0  0  0  0
    0.6725    2.2391   29.6230 C   0  0  0  0  0  0  0  0  0  0  0  0
   -0.2883    1.9552   28.4691 C   0  0  0  0  0  0  0  0  0  0  0  0
    0.2275    2.5670   27.1731 C   0  0  0  0  0  0  0  0  0  0  0  0
   -0.3462    3.8600   27.0101 O   0  0  0  0  0  0  0  0  0  0  0  0
    1.7532    2.6655   27.1277 C   0  0  0  0  0  0  0  0  0  0  0  0
    2.3963    1.5491   27.9474 C   0  0  0  0  0  0  0  0  0  0  0  0
    3.6019    2.6674   31.7741 H   0  0  0  0  0  0  0  0  0  0  0  0
    4.5973    2.2552   30.3496 H   0  0  0  0  0  0  0  0  0  0  0  0
    5.0828    1.7088   31.9518 H   0  0  0  0  0  0  0  0  0  0  0  0
    4.4345   -0.4146   32.6996 H   0  0  0  0  0  0  0  0  0  0  0  0
    2.9658   -2.3879   32.6279 H   0  0  0  0  0  0  0  0  0  0  0  0
   -0.0539   -2.5870   30.2278 H   0  0  0  0  0  0  0  0  0  0  0  0
    1.1879   -3.5860   30.8127 H   0  0  0  0  0  0  0  0  0  0  0  0
   -1.2502   -1.4692   33.0308 H   0  0  0  0  0  0  0  0  0  0  0  0
   -1.0441   -1.2634   31.3597 H   0  0  0  0  0  0  0  0  0  0  0  0
    0.2621   -0.8054   32.6126 H   0  0  0  0  0  0  0  0  0  0  0  0
   -0.0934   -5.5287   33.7798 H   0  0  0  0  0  0  0  0  0  0  0  0
    1.1456   -5.1861   32.5454 H   0  0  0  0  0  0  0  0  0  0  0  0
    0.5527   -6.1517   30.0350 H   0  0  0  0  0  0  0  0  0  0  0  0
   -1.4611   -7.6764   33.4179 H   0  0  0  0  0  0  0  0  0  0  0  0
    0.7962   -0.6316   29.3561 H   0  0  0  0  0  0  0  0  0  0  0  0
    0.7592    3.3239   29.7649 H   0  0  0  0  0  0  0  0  0  0  0  0
    0.2579    1.8483   30.5610 H   0  0  0  0  0  0  0  0  0  0  0  0
   -1.2832    2.3479   28.6998 H   0  0  0  0  0  0  0  0  0  0  0  0
   -0.3973    0.8740   28.3352 H   0  0  0  0  0  0  0  0  0  0  0  0
   -0.1431    1.9638   26.3426 H   0  0  0  0  0  0  0  0  0  0  0  0
   -0.0738    4.2114   26.1462 H   0  0  0  0  0  0  0  0  0  0  0  0
    2.0827    3.6435   27.5028 H   0  0  0  0  0  0  0  0  0  0  0  0
    2.0918    2.6160   26.0862 H   0  0  0  0  0  0  0  0  0  0  0  0
    2.0789    0.5758   27.5512 H   0  0  0  0  0  0  0  0  0  0  0  0
    3.4865    1.6074   27.8452 H   0  0  0  0  0  0  0  0  0  0  0  0
  1  2  1  0
  2  3  2  0
  3  4  1  0
  4  5  2  0
  5  6  1  0
  6  7  1  0
  7  8  1  0
  7  9  1  0
  9 10  2  0
  9 11  1  0
 11 12  1  0
 12 13  1  0
 13 14  2  0
 14 15  1  0
 15 16  2  0
  5 17  1  0
 17 18  2  0
 18 19  1  0
 19 20  1  0
 20 21  1  0
 21 22  1  0
 22 23  1  0
 22 24  1  0
 24 25  1  0
 18  2  1  0
 25 19  1  0
 16 12  1  0
  1 26  1  0
  1 27  1  0
  1 28  1  0
  3 29  1  0
  4 30  1  0
  6 31  1  0
  6 32  1  0
  8 33  1  0
  8 34  1  0
  8 35  1  0
 11 36  1  0
 11 37  1  0
 13 38  1  0
 16 39  1  0
 17 40  1  0
 20 41  1  0
 20 42  1  0
 21 43  1  0
 21 44  1  0
 22 45  1  0
 23 46  1  0
 24 47  1  0
 24 48  1  0
 25 49  1  0
 25 50  1  0
M  END
>  <Energy>  (1058) 
93.54940821130603

>  <compound_id>  (1058) 
2223

>  <target_id>  (1058) 
1

>  <reference_id>  (1058) 
141

>  <inspiration_ids>  (1058) 
[133, 141]

>  <energy_score>  (1058) 
46.617040112266636

>  <distance_score>  (1058) 
2.315279643496697

>  <path>  (1058) 
/opt/xchem-fragalysis-2/maxwin/BulkDock/SCRATCH/505734/C2223-P141/C2223-P141.minimised.mol

>  <scratch_subdir>  (1058) 
/opt/xchem-fragalysis-2/maxwin/BulkDock/SCRATCH/505734/C2223-P141

>  <fragmenstein_runtime>  (1058) 
10.696098566055298

>  <fragmenstein_outcome>  (1058) 
too moved

>  <fragmenstein_mode>  (1058) 
expansion

>  <fragmenstein_error>  (1058) 


$$$$
C3861-P133
     RDKit          3D

 61 64  0  0  0  0  0  0  0  0999 V2000
    1.1994   -1.4110   34.5762 C   0  0  0  0  0  0  0  0  0  0  0  0
    2.1484   -0.2957   34.2510 C   0  0  0  0  0  0  0  0  0  0  0  0
    3.3969   -0.2547   34.8575 C   0  0  0  0  0  0  0  0  0  0  0  0
    4.2461    0.8014   34.5535 C   0  0  0  0  0  0  0  0  0  0  0  0
    3.8290    1.7844   33.6601 C   0  0  0  0  0  0  0  0  0  0  0  0
    2.5728    1.6708   33.0874 C   0  0  0  0  0  0  0  0  0  0  0  0
    2.1087    2.5804   32.1555 N   0  0  0  0  0  0  0  0  0  0  0  0
    2.7026    3.7956   31.6345 C   0  0  0  0  0  0  0  0  0  0  0  0
    3.7160    4.3655   31.9380 O   0  0  0  0  0  0  0  0  0  0  0  0
    1.8034    4.3579   30.4826 C   0  0  0  0  0  0  0  0  0  0  0  0
    1.8014    5.8905   30.4766 C   0  0  0  0  0  0  0  0  0  0  0  0
    2.7111    6.3116   29.3265 C   0  0  0  0  0  0  0  0  0  0  0  0
    3.3389    5.0279   28.8170 C   0  0  0  0  0  0  0  0  0  0  0  0
    2.3207    4.0211   29.1251 N   0  0  0  0  0  0  0  0  0  0  0  0
    2.8588    2.7224   28.9995 N   0  0  0  0  0  0  0  0  0  0  0  0
    1.9757    1.6193   29.0799 C   0  0  0  0  0  0  0  0  0  0  0  0
    2.4237    0.4361   29.6791 C   0  0  0  0  0  0  0  0  0  0  0  0
    1.5405   -0.6129   29.9214 C   0  0  0  0  0  0  0  0  0  0  0  0
    0.2036   -0.5245   29.5130 C   0  0  0  0  0  0  0  0  0  0  0  0
   -0.8214   -1.5850   29.8641 C   0  0  0  0  0  0  0  0  0  0  0  0
   -0.2754   -2.7897   30.5900 N   0  0  0  0  0  0  0  0  0  0  0  0
   -0.2375   -3.3438   29.1879 C   0  0  0  0  0  0  0  0  0  0  0  0
   -0.9107   -3.7123   31.4657 C   0  0  0  0  0  0  0  0  0  0  0  0
   -2.0661   -3.8215   31.7818 O   0  0  0  0  0  0  0  0  0  0  0  0
    0.1252   -4.6545   32.0728 C   0  0  0  0  0  0  0  0  0  0  0  0
   -0.2535   -6.0341   31.8632 N   0  0  0  0  0  0  0  0  0  0  0  0
   -0.9668   -6.8340   32.6983 C   0  0  0  0  0  0  0  0  0  0  0  0
   -1.1787   -7.9902   32.1104 N   0  0  0  0  0  0  0  0  0  0  0  0
   -0.5827   -7.9501   30.8722 N   0  0  0  0  0  0  0  0  0  0  0  0
   -0.0015   -6.7808   30.7561 C   0  0  0  0  0  0  0  0  0  0  0  0
   -0.2207    0.6193   28.8246 C   0  0  0  0  0  0  0  0  0  0  0  0
    0.6595    1.6806   28.6114 C   0  0  0  0  0  0  0  0  0  0  0  0
    1.7329    0.6487   33.3694 N   0  0  0  0  0  0  0  0  0  0  0  0
    1.6551   -2.3774   34.3391 H   0  0  0  0  0  0  0  0  0  0  0  0
    0.2778   -1.3187   33.9925 H   0  0  0  0  0  0  0  0  0  0  0  0
    0.9362   -1.3865   35.6381 H   0  0  0  0  0  0  0  0  0  0  0  0
    3.7037   -1.0205   35.5622 H   0  0  0  0  0  0  0  0  0  0  0  0
    5.2275    0.8687   35.0152 H   0  0  0  0  0  0  0  0  0  0  0  0
    4.4915    2.6097   33.4246 H   0  0  0  0  0  0  0  0  0  0  0  0
    1.2075    2.4393   31.7191 H   0  0  0  0  0  0  0  0  0  0  0  0
    0.7740    4.0033   30.5990 H   0  0  0  0  0  0  0  0  0  0  0  0
    0.7905    6.2722   30.2900 H   0  0  0  0  0  0  0  0  0  0  0  0
    2.1408    6.3224   31.4241 H   0  0  0  0  0  0  0  0  0  0  0  0
    3.4681    7.0330   29.6499 H   0  0  0  0  0  0  0  0  0  0  0  0
    2.1130    6.7854   28.5387 H   0  0  0  0  0  0  0  0  0  0  0  0
    4.2839    4.8363   29.3407 H   0  0  0  0  0  0  0  0  0  0  0  0
    3.5473    5.0825   27.7435 H   0  0  0  0  0  0  0  0  0  0  0  0
    3.7398    2.5531   29.4886 H   0  0  0  0  0  0  0  0  0  0  0  0
    3.4462    0.3524   30.0368 H   0  0  0  0  0  0  0  0  0  0  0  0
    1.9025   -1.4785   30.4686 H   0  0  0  0  0  0  0  0  0  0  0  0
   -1.4098   -1.1090   30.6671 H   0  0  0  0  0  0  0  0  0  0  0  0
   -1.6072   -1.7283   29.0998 H   0  0  0  0  0  0  0  0  0  0  0  0
   -1.2233   -3.6707   28.8427 H   0  0  0  0  0  0  0  0  0  0  0  0
    0.3307   -4.2783   29.2691 H   0  0  0  0  0  0  0  0  0  0  0  0
    0.3379   -2.7820   28.4385 H   0  0  0  0  0  0  0  0  0  0  0  0
    0.1866   -4.4681   33.1501 H   0  0  0  0  0  0  0  0  0  0  0  0
    1.1215   -4.5078   31.6428 H   0  0  0  0  0  0  0  0  0  0  0  0
   -1.3194   -6.5391   33.6772 H   0  0  0  0  0  0  0  0  0  0  0  0
    0.5800   -6.4412   29.9142 H   0  0  0  0  0  0  0  0  0  0  0  0
   -1.2488    0.7122   28.4768 H   0  0  0  0  0  0  0  0  0  0  0  0
    0.3014    2.5758   28.1062 H   0  0  0  0  0  0  0  0  0  0  0  0
  1  2  1  0
  2  3  2  0
  3  4  1  0
  4  5  2  0
  5  6  1  0
  6  7  1  0
  7  8  1  0
  8  9  2  0
  8 10  1  0
 10 11  1  0
 11 12  1  0
 12 13  1  0
 13 14  1  0
 14 15  1  0
 15 16  1  0
 16 17  2  0
 17 18  1  0
 18 19  2  0
 19 20  1  0
 20 21  1  0
 21 22  1  0
 21 23  1  0
 23 24  2  0
 23 25  1  0
 25 26  1  0
 26 27  1  0
 27 28  2  0
 28 29  1  0
 29 30  2  0
 19 31  1  0
 31 32  2  0
  6 33  2  0
 33  2  1  0
 14 10  1  0
 32 16  1  0
 30 26  1  0
  1 34  1  0
  1 35  1  0
  1 36  1  0
  3 37  1  0
  4 38  1  0
  5 39  1  0
  7 40  1  0
 10 41  1  0
 11 42  1  0
 11 43  1  0
 12 44  1  0
 12 45  1  0
 13 46  1  0
 13 47  1  0
 15 48  1  0
 17 49  1  0
 18 50  1  0
 20 51  1  0
 20 52  1  0
 22 53  1  0
 22 54  1  0
 22 55  1  0
 25 56  1  0
 25 57  1  0
 27 58  1  0
 30 59  1  0
 31 60  1  0
 32 61  1  0
M  END
>  <Energy>  (1059) 
118.0363772338516

>  <compound_id>  (1059) 
3861

>  <target_id>  (1059) 
1

>  <reference_id>  (1059) 
133

>  <inspiration_ids>  (1059) 
[133, 142]

>  <energy_score>  (1059) 
-7.729131732766575

>  <distance_score>  (1059) 
2.159469109873987

>  <path>  (1059) 
/opt/xchem-fragalysis-2/maxwin/BulkDock/SCRATCH/505734/C3861-P133/C3861-P133.minimised.mol

>  <scratch_subdir>  (1059) 
/opt/xchem-fragalysis-2/maxwin/BulkDock/SCRATCH/505734/C3861-P133

>  <fragmenstein_runtime>  (1059) 
11.946450233459473

>  <fragmenstein_outcome>  (1059) 
too moved

>  <fragmenstein_mode>  (1059) 
expansion

>  <fragmenstein_error>  (1059) 


$$$$
C3861-P142
     RDKit          3D

 61 64  0  0  0  0  0  0  0  0999 V2000
    1.2483    0.2644   35.1078 C   0  0  0  0  0  0  0  0  0  0  0  0
    2.0214    0.7438   33.9126 C   0  0  0  0  0  0  0  0  0  0  0  0
    3.3972    0.5557   33.8657 C   0  0  0  0  0  0  0  0  0  0  0  0
    4.0892    1.0134   32.7527 C   0  0  0  0  0  0  0  0  0  0  0  0
    3.3942    1.6455   31.7243 C   0  0  0  0  0  0  0  0  0  0  0  0
    2.0190    1.7911   31.8332 C   0  0  0  0  0  0  0  0  0  0  0  0
    1.2689    2.3648   30.8184 N   0  0  0  0  0  0  0  0  0  0  0  0
    1.6526    2.8406   29.5057 C   0  0  0  0  0  0  0  0  0  0  0  0
    2.7345    2.9327   28.9897 O   0  0  0  0  0  0  0  0  0  0  0  0
    0.3891    3.3460   28.7599 C   0  0  0  0  0  0  0  0  0  0  0  0
    0.6195    3.8798   27.3490 C   0  0  0  0  0  0  0  0  0  0  0  0
   -0.7034    3.6487   26.6235 C   0  0  0  0  0  0  0  0  0  0  0  0
   -1.5943    2.9214   27.6250 C   0  0  0  0  0  0  0  0  0  0  0  0
   -0.6724    2.3066   28.6070 N   0  0  0  0  0  0  0  0  0  0  0  0
   -0.1772    1.0965   28.0377 N   0  0  0  0  0  0  0  0  0  0  0  0
    0.0922    0.0485   28.9414 C   0  0  0  0  0  0  0  0  0  0  0  0
    1.3713   -0.5158   28.9934 C   0  0  0  0  0  0  0  0  0  0  0  0
    1.7323   -1.3475   30.0527 C   0  0  0  0  0  0  0  0  0  0  0  0
    0.8047   -1.6610   31.0588 C   0  0  0  0  0  0  0  0  0  0  0  0
    1.2535   -2.4044   32.3065 C   0  0  0  0  0  0  0  0  0  0  0  0
    0.7752   -3.8000   32.6354 N   0  0  0  0  0  0  0  0  0  0  0  0
    1.7166   -4.1532   31.5150 C   0  0  0  0  0  0  0  0  0  0  0  0
   -0.4977   -4.4259   32.4273 C   0  0  0  0  0  0  0  0  0  0  0  0
   -1.4813   -4.0300   31.8568 O   0  0  0  0  0  0  0  0  0  0  0  0
   -0.4778   -5.8122   33.0480 C   0  0  0  0  0  0  0  0  0  0  0  0
   -0.7566   -6.8429   32.0746 N   0  0  0  0  0  0  0  0  0  0  0  0
   -1.3612   -8.0292   32.3293 C   0  0  0  0  0  0  0  0  0  0  0  0
   -1.3966   -8.7417   31.2282 N   0  0  0  0  0  0  0  0  0  0  0  0
   -0.8202   -8.0036   30.2282 N   0  0  0  0  0  0  0  0  0  0  0  0
   -0.4561   -6.8576   30.7493 C   0  0  0  0  0  0  0  0  0  0  0  0
   -0.5040   -1.1763   30.9484 C   0  0  0  0  0  0  0  0  0  0  0  0
   -0.8503   -0.3194   29.9056 C   0  0  0  0  0  0  0  0  0  0  0  0
    1.3298    1.3545   32.9149 N   0  0  0  0  0  0  0  0  0  0  0  0
    1.5200    0.8521   35.9900 H   0  0  0  0  0  0  0  0  0  0  0  0
    1.4579   -0.7922   35.3014 H   0  0  0  0  0  0  0  0  0  0  0  0
    0.1719    0.3721   34.9401 H   0  0  0  0  0  0  0  0  0  0  0  0
    3.9248    0.0731   34.6816 H   0  0  0  0  0  0  0  0  0  0  0  0
    5.1666    0.8931   32.6846 H   0  0  0  0  0  0  0  0  0  0  0  0
    3.9349    2.0042   30.8560 H   0  0  0  0  0  0  0  0  0  0  0  0
    0.2582    2.3513   30.8827 H   0  0  0  0  0  0  0  0  0  0  0  0
   -0.0190    4.1614   29.3731 H   0  0  0  0  0  0  0  0  0  0  0  0
    0.8821    4.9430   27.3652 H   0  0  0  0  0  0  0  0  0  0  0  0
    1.4262    3.3505   26.8286 H   0  0  0  0  0  0  0  0  0  0  0  0
   -0.5357    3.0342   25.7317 H   0  0  0  0  0  0  0  0  0  0  0  0
   -1.1558    4.5919   26.3010 H   0  0  0  0  0  0  0  0  0  0  0  0
   -2.2654    2.1982   27.1477 H   0  0  0  0  0  0  0  0  0  0  0  0
   -2.2239    3.6499   28.1486 H   0  0  0  0  0  0  0  0  0  0  0  0
    0.4924    1.1671   27.2742 H   0  0  0  0  0  0  0  0  0  0  0  0
    2.1217   -0.2305   28.2617 H   0  0  0  0  0  0  0  0  0  0  0  0
    2.7616   -1.6892   30.1170 H   0  0  0  0  0  0  0  0  0  0  0  0
    2.3118   -2.2269   32.5658 H   0  0  0  0  0  0  0  0  0  0  0  0
    0.7598   -1.8407   33.1135 H   0  0  0  0  0  0  0  0  0  0  0  0
    1.2916   -4.0080   30.5127 H   0  0  0  0  0  0  0  0  0  0  0  0
    1.8119   -5.2474   31.5765 H   0  0  0  0  0  0  0  0  0  0  0  0
    2.7682   -3.8441   31.6204 H   0  0  0  0  0  0  0  0  0  0  0  0
   -1.2383   -5.8555   33.8330 H   0  0  0  0  0  0  0  0  0  0  0  0
    0.4921   -6.0507   33.4971 H   0  0  0  0  0  0  0  0  0  0  0  0
   -1.7428   -8.3270   33.2954 H   0  0  0  0  0  0  0  0  0  0  0  0
   -0.0114   -6.0388   30.2039 H   0  0  0  0  0  0  0  0  0  0  0  0
   -1.2482   -1.4084   31.7063 H   0  0  0  0  0  0  0  0  0  0  0  0
   -1.8523    0.1006   29.8596 H   0  0  0  0  0  0  0  0  0  0  0  0
  1  2  1  0
  2  3  2  0
  3  4  1  0
  4  5  2  0
  5  6  1  0
  6  7  1  0
  7  8  1  0
  8  9  2  0
  8 10  1  0
 10 11  1  0
 11 12  1  0
 12 13  1  0
 13 14  1  0
 14 15  1  0
 15 16  1  0
 16 17  2  0
 17 18  1  0
 18 19  2  0
 19 20  1  0
 20 21  1  0
 21 22  1  0
 21 23  1  0
 23 24  2  0
 23 25  1  0
 25 26  1  0
 26 27  1  0
 27 28  2  0
 28 29  1  0
 29 30  2  0
 19 31  1  0
 31 32  2  0
  6 33  2  0
 33  2  1  0
 14 10  1  0
 32 16  1  0
 30 26  1  0
  1 34  1  0
  1 35  1  0
  1 36  1  0
  3 37  1  0
  4 38  1  0
  5 39  1  0
  7 40  1  0
 10 41  1  0
 11 42  1  0
 11 43  1  0
 12 44  1  0
 12 45  1  0
 13 46  1  0
 13 47  1  0
 15 48  1  0
 17 49  1  0
 18 50  1  0
 20 51  1  0
 20 52  1  0
 22 53  1  0
 22 54  1  0
 22 55  1  0
 25 56  1  0
 25 57  1  0
 27 58  1  0
 30 59  1  0
 31 60  1  0
 32 61  1  0
M  END
>  <Energy>  (1060) 
124.90575513500139

>  <compound_id>  (1060) 
3861

>  <target_id>  (1060) 
1

>  <reference_id>  (1060) 
142

>  <inspiration_ids>  (1060) 
[133, 142]

>  <energy_score>  (1060) 
-0.859753831618491

>  <distance_score>  (1060) 
2.25135261938442

>  <path>  (1060) 
/opt/xchem-fragalysis-2/maxwin/BulkDock/SCRATCH/505734/C3861-P142/C3861-P142.minimised.mol

>  <scratch_subdir>  (1060) 
/opt/xchem-fragalysis-2/maxwin/BulkDock/SCRATCH/505734/C3861-P142

>  <fragmenstein_runtime>  (1060) 
10.829819440841675

>  <fragmenstein_outcome>  (1060) 
too moved

>  <fragmenstein_mode>  (1060) 
expansion

>  <fragmenstein_error>  (1060) 


$$$$
C3863-P133
     RDKit          3D

 60 62  0  0  0  0  0  0  0  0999 V2000
    5.9086    0.7938   37.3398 C   0  0  0  0  0  0  0  0  0  0  0  0
    6.0990   -0.5947   37.9227 C   0  0  0  0  0  0  0  0  0  0  0  0
    6.0574   -1.6671   36.8392 C   0  0  0  0  0  0  0  0  0  0  0  0
    7.0795   -2.1699   36.4629 O   0  0  0  0  0  0  0  0  0  0  0  0
    4.6900   -1.8964   36.4387 N   0  0  0  0  0  0  0  0  0  0  0  0
    4.1504   -2.7036   35.4300 C   0  0  0  0  0  0  0  0  0  0  0  0
    2.8926   -2.2779   34.9600 C   0  0  0  0  0  0  0  0  0  0  0  0
    2.2810   -1.2311   35.6105 O   0  0  0  0  0  0  0  0  0  0  0  0
    2.2802   -2.8602   33.8524 C   0  0  0  0  0  0  0  0  0  0  0  0
    2.9253   -3.8976   33.1829 C   0  0  0  0  0  0  0  0  0  0  0  0
    2.3254   -4.5196   31.9568 C   0  0  0  0  0  0  0  0  0  0  0  0
    4.1369   -4.3826   33.6962 C   0  0  0  0  0  0  0  0  0  0  0  0
    4.7375   -3.8393   34.8567 C   0  0  0  0  0  0  0  0  0  0  0  0
    5.9119   -4.5795   35.4710 C   0  0  0  0  0  0  0  0  0  0  0  0
    5.6908   -6.0530   35.5693 N   0  0  0  0  0  0  0  0  0  0  0  0
    4.9566   -6.3959   36.7345 C   0  0  0  0  0  0  0  0  0  0  0  0
    5.5891   -6.8813   37.8838 C   0  0  0  0  0  0  0  0  0  0  0  0
    4.8694   -7.0754   39.0688 C   0  0  0  0  0  0  0  0  0  0  0  0
    3.5114   -6.7701   39.1231 C   0  0  0  0  0  0  0  0  0  0  0  0
    2.8619   -6.3022   37.9783 C   0  0  0  0  0  0  0  0  0  0  0  0
    1.3852   -5.9774   37.9722 C   0  0  0  0  0  0  0  0  0  0  0  0
    0.6280   -6.7192   36.9029 N   0  0  0  0  0  0  0  0  0  0  0  0
    0.4262   -7.6959   38.0280 C   0  0  0  0  0  0  0  0  0  0  0  0
   -0.6178   -6.4298   36.2743 C   0  0  0  0  0  0  0  0  0  0  0  0
   -1.4251   -5.5686   36.4999 O   0  0  0  0  0  0  0  0  0  0  0  0
   -0.8717   -7.4566   35.1768 C   0  0  0  0  0  0  0  0  0  0  0  0
   -0.9274   -6.9266   33.8298 N   0  0  0  0  0  0  0  0  0  0  0  0
   -1.1737   -7.6720   32.7148 C   0  0  0  0  0  0  0  0  0  0  0  0
   -1.0717   -6.9196   31.6460 N   0  0  0  0  0  0  0  0  0  0  0  0
   -0.8068   -5.6399   32.0722 N   0  0  0  0  0  0  0  0  0  0  0  0
   -0.7314   -5.6595   33.3858 C   0  0  0  0  0  0  0  0  0  0  0  0
    3.5894   -6.1375   36.7934 C   0  0  0  0  0  0  0  0  0  0  0  0
    4.9228    0.9045   36.8771 H   0  0  0  0  0  0  0  0  0  0  0  0
    6.0019    1.5513   38.1239 H   0  0  0  0  0  0  0  0  0  0  0  0
    6.6607    1.0004   36.5712 H   0  0  0  0  0  0  0  0  0  0  0  0
    7.0696   -0.6568   38.4285 H   0  0  0  0  0  0  0  0  0  0  0  0
    5.3351   -0.8062   38.6795 H   0  0  0  0  0  0  0  0  0  0  0  0
    4.0892   -1.2284   36.9115 H   0  0  0  0  0  0  0  0  0  0  0  0
    1.4229   -1.0695   35.1809 H   0  0  0  0  0  0  0  0  0  0  0  0
    1.3232   -2.4968   33.4890 H   0  0  0  0  0  0  0  0  0  0  0  0
    1.4253   -3.9868   31.6349 H   0  0  0  0  0  0  0  0  0  0  0  0
    2.0635   -5.5635   32.1532 H   0  0  0  0  0  0  0  0  0  0  0  0
    3.0416   -4.4817   31.1295 H   0  0  0  0  0  0  0  0  0  0  0  0
    4.6098   -5.2410   33.2216 H   0  0  0  0  0  0  0  0  0  0  0  0
    6.1420   -4.2266   36.4771 H   0  0  0  0  0  0  0  0  0  0  0  0
    6.7915   -4.4050   34.8405 H   0  0  0  0  0  0  0  0  0  0  0  0
    6.6032   -6.5030   35.6148 H   0  0  0  0  0  0  0  0  0  0  0  0
    6.6567   -7.0833   37.8783 H   0  0  0  0  0  0  0  0  0  0  0  0
    5.3810   -7.4415   39.9554 H   0  0  0  0  0  0  0  0  0  0  0  0
    2.9691   -6.9061   40.0553 H   0  0  0  0  0  0  0  0  0  0  0  0
    0.9316   -5.8338   38.9694 H   0  0  0  0  0  0  0  0  0  0  0  0
    1.3382   -4.9378   37.6048 H   0  0  0  0  0  0  0  0  0  0  0  0
   -0.2663   -7.3503   38.8105 H   0  0  0  0  0  0  0  0  0  0  0  0
   -0.1102   -8.5270   37.5637 H   0  0  0  0  0  0  0  0  0  0  0  0
    1.3275   -8.1893   38.4122 H   0  0  0  0  0  0  0  0  0  0  0  0
   -1.8300   -7.9454   35.3794 H   0  0  0  0  0  0  0  0  0  0  0  0
   -0.0856   -8.2149   35.1759 H   0  0  0  0  0  0  0  0  0  0  0  0
   -1.4177   -8.7221   32.7303 H   0  0  0  0  0  0  0  0  0  0  0  0
   -0.5501   -4.8046   34.0236 H   0  0  0  0  0  0  0  0  0  0  0  0
    3.0733   -5.7821   35.9054 H   0  0  0  0  0  0  0  0  0  0  0  0
  1  2  1  0
  2  3  1  0
  3  4  2  0
  3  5  1  0
  5  6  1  0
  6  7  2  0
  7  8  1  0
  7  9  1  0
  9 10  2  0
 10 11  1  0
 10 12  1  0
 12 13  2  0
 13 14  1  0
 14 15  1  0
 15 16  1  0
 16 17  2  0
 17 18  1  0
 18 19  2  0
 19 20  1  0
 20 21  1  0
 21 22  1  0
 22 23  1  0
 22 24  1  0
 24 25  2  0
 24 26  1  0
 26 27  1  0
 27 28  1  0
 28 29  2  0
 29 30  1  0
 30 31  2  0
 20 32  2  0
 13  6  1  0
 32 16  1  0
 31 27  1  0
  1 33  1  0
  1 34  1  0
  1 35  1  0
  2 36  1  0
  2 37  1  0
  5 38  1  0
  8 39  1  0
  9 40  1  0
 11 41  1  0
 11 42  1  0
 11 43  1  0
 12 44  1  0
 14 45  1  0
 14 46  1  0
 15 47  1  0
 17 48  1  0
 18 49  1  0
 19 50  1  0
 21 51  1  0
 21 52  1  0
 23 53  1  0
 23 54  1  0
 23 55  1  0
 26 56  1  0
 26 57  1  0
 28 58  1  0
 31 59  1  0
 32 60  1  0
M  END
>  <Energy>  (1061) 
88.106443999002082

>  <compound_id>  (1061) 
3863

>  <target_id>  (1061) 
1

>  <reference_id>  (1061) 
133

>  <inspiration_ids>  (1061) 
[133, 145]

>  <energy_score>  (1061) 
-1.7061475798779995

>  <distance_score>  (1061) 
2.5071612043336917

>  <path>  (1061) 
/opt/xchem-fragalysis-2/maxwin/BulkDock/SCRATCH/505734/C3863-P133/C3863-P133.minimised.mol

>  <scratch_subdir>  (1061) 
/opt/xchem-fragalysis-2/maxwin/BulkDock/SCRATCH/505734/C3863-P133

>  <fragmenstein_runtime>  (1061) 
15.8114013671875

>  <fragmenstein_outcome>  (1061) 
too moved

>  <fragmenstein_mode>  (1061) 
expansion

>  <fragmenstein_error>  (1061) 


$$$$
C3863-P145
     RDKit          3D

 60 62  0  0  0  0  0  0  0  0999 V2000
    8.1333   -0.3471   37.7974 C   0  0  0  0  0  0  0  0  0  0  0  0
    7.5551   -1.5388   38.5388 C   0  0  0  0  0  0  0  0  0  0  0  0
    7.0204   -2.5921   37.5741 C   0  0  0  0  0  0  0  0  0  0  0  0
    7.6555   -3.5893   37.3741 O   0  0  0  0  0  0  0  0  0  0  0  0
    5.7509   -2.1598   37.0420 N   0  0  0  0  0  0  0  0  0  0  0  0
    4.9202   -2.7267   36.0634 C   0  0  0  0  0  0  0  0  0  0  0  0
    4.0600   -1.7928   35.4507 C   0  0  0  0  0  0  0  0  0  0  0  0
    4.0488   -0.5047   35.9374 O   0  0  0  0  0  0  0  0  0  0  0  0
    3.2569   -2.1224   34.3641 C   0  0  0  0  0  0  0  0  0  0  0  0
    3.2650   -3.4279   33.8841 C   0  0  0  0  0  0  0  0  0  0  0  0
    2.4545   -3.7849   32.6775 C   0  0  0  0  0  0  0  0  0  0  0  0
    4.0622   -4.3852   34.5322 C   0  0  0  0  0  0  0  0  0  0  0  0
    4.8692   -4.0688   35.6520 C   0  0  0  0  0  0  0  0  0  0  0  0
    5.6087   -5.1792   36.3773 C   0  0  0  0  0  0  0  0  0  0  0  0
    4.9546   -6.5069   36.3217 N   0  0  0  0  0  0  0  0  0  0  0  0
    4.0467   -6.8361   37.3485 C   0  0  0  0  0  0  0  0  0  0  0  0
    3.8883   -8.1750   37.7290 C   0  0  0  0  0  0  0  0  0  0  0  0
    2.9161   -8.5587   38.6597 C   0  0  0  0  0  0  0  0  0  0  0  0
    2.0416   -7.6160   39.1895 C   0  0  0  0  0  0  0  0  0  0  0  0
    2.1557   -6.2767   38.8094 C   0  0  0  0  0  0  0  0  0  0  0  0
    1.1209   -5.2419   39.2540 C   0  0  0  0  0  0  0  0  0  0  0  0
    0.2434   -5.0359   38.0442 N   0  0  0  0  0  0  0  0  0  0  0  0
   -0.5881   -4.2771   39.0461 C   0  0  0  0  0  0  0  0  0  0  0  0
    0.4432   -4.2440   36.8705 C   0  0  0  0  0  0  0  0  0  0  0  0
    1.3192   -3.4713   36.5895 O   0  0  0  0  0  0  0  0  0  0  0  0
   -0.6233   -4.5846   35.8521 C   0  0  0  0  0  0  0  0  0  0  0  0
   -0.1822   -5.5300   34.8483 N   0  0  0  0  0  0  0  0  0  0  0  0
    0.3655   -6.7572   35.0563 C   0  0  0  0  0  0  0  0  0  0  0  0
    0.4707   -7.3839   33.9063 N   0  0  0  0  0  0  0  0  0  0  0  0
   -0.0265   -6.5579   32.9245 N   0  0  0  0  0  0  0  0  0  0  0  0
   -0.4110   -5.4470   33.5087 C   0  0  0  0  0  0  0  0  0  0  0  0
    3.1649   -5.9048   37.9018 C   0  0  0  0  0  0  0  0  0  0  0  0
    8.5650    0.3675   38.5047 H   0  0  0  0  0  0  0  0  0  0  0  0
    8.9203   -0.6632   37.1047 H   0  0  0  0  0  0  0  0  0  0  0  0
    7.3680    0.1740   37.2136 H   0  0  0  0  0  0  0  0  0  0  0  0
    8.3304   -2.0044   39.1583 H   0  0  0  0  0  0  0  0  0  0  0  0
    6.7559   -1.2225   39.2187 H   0  0  0  0  0  0  0  0  0  0  0  0
    5.5566   -1.2190   37.3698 H   0  0  0  0  0  0  0  0  0  0  0  0
    3.3372   -0.0252   35.4812 H   0  0  0  0  0  0  0  0  0  0  0  0
    2.6324   -1.3753   33.8858 H   0  0  0  0  0  0  0  0  0  0  0  0
    3.0356   -3.5998   31.7690 H   0  0  0  0  0  0  0  0  0  0  0  0
    1.5340   -3.1938   32.6335 H   0  0  0  0  0  0  0  0  0  0  0  0
    2.1686   -4.8367   32.7067 H   0  0  0  0  0  0  0  0  0  0  0  0
    4.0350   -5.4174   34.1879 H   0  0  0  0  0  0  0  0  0  0  0  0
    6.5897   -5.2815   35.8993 H   0  0  0  0  0  0  0  0  0  0  0  0
    5.7571   -4.9303   37.4318 H   0  0  0  0  0  0  0  0  0  0  0  0
    5.6696   -7.2276   36.2533 H   0  0  0  0  0  0  0  0  0  0  0  0
    4.5264   -8.9425   37.2987 H   0  0  0  0  0  0  0  0  0  0  0  0
    2.8187   -9.6031   38.9470 H   0  0  0  0  0  0  0  0  0  0  0  0
    1.2612   -7.9456   39.8710 H   0  0  0  0  0  0  0  0  0  0  0  0
    0.6443   -5.6900   40.1408 H   0  0  0  0  0  0  0  0  0  0  0  0
    1.6939   -4.3373   39.5132 H   0  0  0  0  0  0  0  0  0  0  0  0
   -1.4300   -3.8577   38.4757 H   0  0  0  0  0  0  0  0  0  0  0  0
   -1.0769   -4.9143   39.7967 H   0  0  0  0  0  0  0  0  0  0  0  0
   -0.1059   -3.3778   39.4614 H   0  0  0  0  0  0  0  0  0  0  0  0
   -1.4741   -5.0535   36.3402 H   0  0  0  0  0  0  0  0  0  0  0  0
   -0.9516   -3.6623   35.3635 H   0  0  0  0  0  0  0  0  0  0  0  0
    0.6573   -7.1423   36.0250 H   0  0  0  0  0  0  0  0  0  0  0  0
   -0.8494   -4.5855   33.0267 H   0  0  0  0  0  0  0  0  0  0  0  0
    3.2133   -4.8653   37.5908 H   0  0  0  0  0  0  0  0  0  0  0  0
  1  2  1  0
  2  3  1  0
  3  4  2  0
  3  5  1  0
  5  6  1  0
  6  7  2  0
  7  8  1  0
  7  9  1  0
  9 10  2  0
 10 11  1  0
 10 12  1  0
 12 13  2  0
 13 14  1  0
 14 15  1  0
 15 16  1  0
 16 17  2  0
 17 18  1  0
 18 19  2  0
 19 20  1  0
 20 21  1  0
 21 22  1  0
 22 23  1  0
 22 24  1  0
 24 25  2  0
 24 26  1  0
 26 27  1  0
 27 28  1  0
 28 29  2  0
 29 30  1  0
 30 31  2  0
 20 32  2  0
 13  6  1  0
 32 16  1  0
 31 27  1  0
  1 33  1  0
  1 34  1  0
  1 35  1  0
  2 36  1  0
  2 37  1  0
  5 38  1  0
  8 39  1  0
  9 40  1  0
 11 41  1  0
 11 42  1  0
 11 43  1  0
 12 44  1  0
 14 45  1  0
 14 46  1  0
 15 47  1  0
 17 48  1  0
 18 49  1  0
 19 50  1  0
 21 51  1  0
 21 52  1  0
 23 53  1  0
 23 54  1  0
 23 55  1  0
 26 56  1  0
 26 57  1  0
 28 58  1  0
 31 59  1  0
 32 60  1  0
M  END
>  <Energy>  (1062) 
84.635010555588465

>  <compound_id>  (1062) 
3863

>  <target_id>  (1062) 
1

>  <reference_id>  (1062) 
145

>  <inspiration_ids>  (1062) 
[133, 145]

>  <energy_score>  (1062) 
-5.177581023294364

>  <distance_score>  (1062) 
3.0086841864216374

>  <path>  (1062) 
/opt/xchem-fragalysis-2/maxwin/BulkDock/SCRATCH/505734/C3863-P145/C3863-P145.minimised.mol

>  <scratch_subdir>  (1062) 
/opt/xchem-fragalysis-2/maxwin/BulkDock/SCRATCH/505734/C3863-P145

>  <fragmenstein_runtime>  (1062) 
17.93529200553894

>  <fragmenstein_outcome>  (1062) 
too moved

>  <fragmenstein_mode>  (1062) 
expansion

>  <fragmenstein_error>  (1062) 


$$$$
C3865-P133
     RDKit          3D

 52 54  0  0  0  0  0  0  0  0999 V2000
   -1.0041   -7.3483   35.7061 C   0  0  0  0  0  0  0  0  0  0  0  0
   -0.2527   -6.2550   34.9552 C   0  0  0  0  0  0  0  0  0  0  0  0
    0.8578   -5.7091   35.8552 C   0  0  0  0  0  0  0  0  0  0  0  0
    0.2727   -6.8041   33.6155 C   0  0  0  0  0  0  0  0  0  0  0  0
    1.0840   -5.8791   32.8227 N   0  0  0  0  0  0  0  0  0  0  0  0
    0.2241   -5.5059   31.7106 C   0  0  0  0  0  0  0  0  0  0  0  0
    1.0565   -5.1344   30.4654 C   0  0  0  0  0  0  0  0  0  0  0  0
    1.3922   -3.6401   30.3299 C   0  0  0  0  0  0  0  0  0  0  0  0
    1.4228   -2.9084   31.6741 C   0  0  0  0  0  0  0  0  0  0  0  0
    1.8629   -1.4217   31.5120 C   0  0  0  0  0  0  0  0  0  0  0  0
    2.4999   -0.9291   32.8408 N   0  0  0  0  0  0  0  0  0  0  0  0
    1.3774    0.0382   32.7724 C   0  0  0  0  0  0  0  0  0  0  0  0
    3.9069   -0.7386   32.6718 C   0  0  0  0  0  0  0  0  0  0  0  0
    4.5302    0.2374   32.3421 O   0  0  0  0  0  0  0  0  0  0  0  0
    4.6744   -2.0268   32.9444 C   0  0  0  0  0  0  0  0  0  0  0  0
    4.2824   -2.7448   34.1377 N   0  0  0  0  0  0  0  0  0  0  0  0
    4.1949   -4.0984   34.2547 C   0  0  0  0  0  0  0  0  0  0  0  0
    3.9002   -4.4110   35.4938 N   0  0  0  0  0  0  0  0  0  0  0  0
    3.7952   -3.2365   36.2044 N   0  0  0  0  0  0  0  0  0  0  0  0
    4.0408   -2.2445   35.3784 C   0  0  0  0  0  0  0  0  0  0  0  0
    0.0633   -3.0326   32.3852 C   0  0  0  0  0  0  0  0  0  0  0  0
   -0.6955   -4.3230   32.0578 C   0  0  0  0  0  0  0  0  0  0  0  0
   -0.5458   -6.7150   31.4496 N   0  0  0  0  0  0  0  0  0  0  0  0
   -0.8224   -7.2337   32.7947 O   0  0  0  0  0  0  0  0  0  0  0  0
   -1.3318   -6.9583   36.6703 H   0  0  0  0  0  0  0  0  0  0  0  0
   -0.3641   -8.2139   35.8973 H   0  0  0  0  0  0  0  0  0  0  0  0
   -1.8864   -7.6839   35.1531 H   0  0  0  0  0  0  0  0  0  0  0  0
   -0.9705   -5.4483   34.7771 H   0  0  0  0  0  0  0  0  0  0  0  0
    0.4751   -5.4716   36.8539 H   0  0  0  0  0  0  0  0  0  0  0  0
    1.2675   -4.7808   35.4497 H   0  0  0  0  0  0  0  0  0  0  0  0
    1.6716   -6.4329   35.9688 H   0  0  0  0  0  0  0  0  0  0  0  0
    0.8951   -7.6771   33.8227 H   0  0  0  0  0  0  0  0  0  0  0  0
    1.3024   -5.0684   33.3932 H   0  0  0  0  0  0  0  0  0  0  0  0
    0.5217   -5.4266   29.5543 H   0  0  0  0  0  0  0  0  0  0  0  0
    1.9890   -5.7134   30.4483 H   0  0  0  0  0  0  0  0  0  0  0  0
    0.6448   -3.1657   29.6800 H   0  0  0  0  0  0  0  0  0  0  0  0
    2.3540   -3.5397   29.8125 H   0  0  0  0  0  0  0  0  0  0  0  0
    2.1768   -3.4113   32.2866 H   0  0  0  0  0  0  0  0  0  0  0  0
    1.0697   -0.8671   30.9744 H   0  0  0  0  0  0  0  0  0  0  0  0
    2.6889   -1.4164   30.7826 H   0  0  0  0  0  0  0  0  0  0  0  0
    1.4891    0.7927   31.9778 H   0  0  0  0  0  0  0  0  0  0  0  0
    1.5094    0.6378   33.6851 H   0  0  0  0  0  0  0  0  0  0  0  0
    0.3749   -0.3891   32.8905 H   0  0  0  0  0  0  0  0  0  0  0  0
    4.5689   -2.6917   32.0807 H   0  0  0  0  0  0  0  0  0  0  0  0
    5.7374   -1.7889   33.0678 H   0  0  0  0  0  0  0  0  0  0  0  0
    4.3561   -4.7940   33.4435 H   0  0  0  0  0  0  0  0  0  0  0  0
    4.0541   -1.1928   35.6298 H   0  0  0  0  0  0  0  0  0  0  0  0
   -0.5939   -2.1980   32.1145 H   0  0  0  0  0  0  0  0  0  0  0  0
    0.2215   -2.9605   33.4685 H   0  0  0  0  0  0  0  0  0  0  0  0
   -1.3776   -4.5470   32.8812 H   0  0  0  0  0  0  0  0  0  0  0  0
   -1.3434   -4.1181   31.1949 H   0  0  0  0  0  0  0  0  0  0  0  0
    0.0844   -7.4380   31.1017 H   0  0  0  0  0  0  0  0  0  0  0  0
  1  2  1  0
  2  3  1  0
  2  4  1  0
  4  5  1  0
  5  6  1  0
  6  7  1  0
  7  8  1  0
  8  9  1  0
  9 10  1  0
 10 11  1  0
 11 12  1  0
 11 13  1  0
 13 14  2  0
 13 15  1  0
 15 16  1  0
 16 17  1  0
 17 18  2  0
 18 19  1  0
 19 20  2  0
  9 21  1  0
 21 22  1  0
  6 23  1  0
 23 24  1  0
 24  4  1  0
 22  6  1  0
 20 16  1  0
  1 25  1  0
  1 26  1  0
  1 27  1  0
  2 28  1  0
  3 29  1  0
  3 30  1  0
  3 31  1  0
  4 32  1  0
  5 33  1  0
  7 34  1  0
  7 35  1  0
  8 36  1  0
  8 37  1  0
  9 38  1  0
 10 39  1  0
 10 40  1  0
 12 41  1  0
 12 42  1  0
 12 43  1  0
 15 44  1  0
 15 45  1  0
 17 46  1  0
 20 47  1  0
 21 48  1  0
 21 49  1  0
 22 50  1  0
 22 51  1  0
 23 52  1  0
M  END
>  <Energy>  (1063) 
60.350265366691829

>  <compound_id>  (1063) 
3865

>  <target_id>  (1063) 
1

>  <reference_id>  (1063) 
133

>  <inspiration_ids>  (1063) 
[133, 148]

>  <energy_score>  (1063) 
17.939687953600327

>  <distance_score>  (1063) 
2.3322418569464762

>  <path>  (1063) 
/opt/xchem-fragalysis-2/maxwin/BulkDock/SCRATCH/505734/C3865-P133/C3865-P133.minimised.mol

>  <scratch_subdir>  (1063) 
/opt/xchem-fragalysis-2/maxwin/BulkDock/SCRATCH/505734/C3865-P133

>  <fragmenstein_runtime>  (1063) 
6.714467525482178

>  <fragmenstein_outcome>  (1063) 
too moved

>  <fragmenstein_mode>  (1063) 
expansion

>  <fragmenstein_error>  (1063) 


$$$$
C3865-P148
     RDKit          3D

 52 54  0  0  0  0  0  0  0  0999 V2000
   -0.3945   -3.9017   29.2945 C   0  0  0  0  0  0  0  0  0  0  0  0
    0.1234   -3.6363   30.7036 C   0  0  0  0  0  0  0  0  0  0  0  0
    0.2457   -2.1184   30.9008 C   0  0  0  0  0  0  0  0  0  0  0  0
   -0.7778   -4.2832   31.7717 C   0  0  0  0  0  0  0  0  0  0  0  0
   -0.3020   -4.0094   33.1122 N   0  0  0  0  0  0  0  0  0  0  0  0
    0.3135   -5.2610   33.5325 C   0  0  0  0  0  0  0  0  0  0  0  0
    1.7376   -5.4763   32.9868 C   0  0  0  0  0  0  0  0  0  0  0  0
    2.6471   -4.3058   33.3359 C   0  0  0  0  0  0  0  0  0  0  0  0
    2.7061   -4.0271   34.8420 C   0  0  0  0  0  0  0  0  0  0  0  0
    3.3754   -2.6419   35.1877 C   0  0  0  0  0  0  0  0  0  0  0  0
    4.9249   -2.4985   35.1834 N   0  0  0  0  0  0  0  0  0  0  0  0
    4.6466   -1.8461   33.8809 C   0  0  0  0  0  0  0  0  0  0  0  0
    5.5382   -3.7549   35.4866 C   0  0  0  0  0  0  0  0  0  0  0  0
    5.9029   -4.6434   34.7603 O   0  0  0  0  0  0  0  0  0  0  0  0
    5.8130   -3.8343   36.9844 C   0  0  0  0  0  0  0  0  0  0  0  0
    4.7200   -4.4426   37.6975 N   0  0  0  0  0  0  0  0  0  0  0  0
    4.3038   -5.7336   37.6083 C   0  0  0  0  0  0  0  0  0  0  0  0
    3.2307   -5.8910   38.3477 N   0  0  0  0  0  0  0  0  0  0  0  0
    2.9664   -4.6869   38.9624 N   0  0  0  0  0  0  0  0  0  0  0  0
    3.8868   -3.8332   38.5811 C   0  0  0  0  0  0  0  0  0  0  0  0
    1.3119   -4.0924   35.5247 C   0  0  0  0  0  0  0  0  0  0  0  0
    0.4277   -5.2632   35.0616 C   0  0  0  0  0  0  0  0  0  0  0  0
   -0.5622   -6.2732   32.9710 N   0  0  0  0  0  0  0  0  0  0  0  0
   -0.8767   -5.7102   31.6427 O   0  0  0  0  0  0  0  0  0  0  0  0
    0.2941   -3.4947   28.5469 H   0  0  0  0  0  0  0  0  0  0  0  0
   -1.3679   -3.4279   29.1446 H   0  0  0  0  0  0  0  0  0  0  0  0
   -0.4888   -4.9726   29.1092 H   0  0  0  0  0  0  0  0  0  0  0  0
    1.1296   -4.0613   30.7357 H   0  0  0  0  0  0  0  0  0  0  0  0
    0.8661   -1.6744   30.1145 H   0  0  0  0  0  0  0  0  0  0  0  0
    0.7116   -1.8705   31.8592 H   0  0  0  0  0  0  0  0  0  0  0  0
   -0.7369   -1.6352   30.8666 H   0  0  0  0  0  0  0  0  0  0  0  0
   -1.7842   -3.8663   31.6618 H   0  0  0  0  0  0  0  0  0  0  0  0
   -1.1247   -3.8697   33.7009 H   0  0  0  0  0  0  0  0  0  0  0  0
    1.7577   -5.6438   31.9054 H   0  0  0  0  0  0  0  0  0  0  0  0
    2.1578   -6.3928   33.4227 H   0  0  0  0  0  0  0  0  0  0  0  0
    2.3069   -3.4116   32.8046 H   0  0  0  0  0  0  0  0  0  0  0  0
    3.6521   -4.5364   32.9642 H   0  0  0  0  0  0  0  0  0  0  0  0
    3.2835   -4.8449   35.2787 H   0  0  0  0  0  0  0  0  0  0  0  0
    2.7627   -1.8008   34.8127 H   0  0  0  0  0  0  0  0  0  0  0  0
    3.1921   -2.5244   36.2665 H   0  0  0  0  0  0  0  0  0  0  0  0
    4.2553   -2.4760   33.0822 H   0  0  0  0  0  0  0  0  0  0  0  0
    4.1929   -0.8480   33.9645 H   0  0  0  0  0  0  0  0  0  0  0  0
    5.6573   -1.6216   33.5066 H   0  0  0  0  0  0  0  0  0  0  0  0
    6.7105   -4.4381   37.1578 H   0  0  0  0  0  0  0  0  0  0  0  0
    5.9997   -2.8370   37.3977 H   0  0  0  0  0  0  0  0  0  0  0  0
    4.7822   -6.4899   37.0007 H   0  0  0  0  0  0  0  0  0  0  0  0
    3.9699   -2.8017   38.8939 H   0  0  0  0  0  0  0  0  0  0  0  0
    1.4411   -4.1633   36.6106 H   0  0  0  0  0  0  0  0  0  0  0  0
    0.7788   -3.1485   35.3523 H   0  0  0  0  0  0  0  0  0  0  0  0
   -0.5596   -5.1771   35.5343 H   0  0  0  0  0  0  0  0  0  0  0  0
    0.8579   -6.2094   35.4150 H   0  0  0  0  0  0  0  0  0  0  0  0
   -1.4667   -6.2334   33.4396 H   0  0  0  0  0  0  0  0  0  0  0  0
  1  2  1  0
  2  3  1  0
  2  4  1  0
  4  5  1  0
  5  6  1  0
  6  7  1  0
  7  8  1  0
  8  9  1  0
  9 10  1  0
 10 11  1  0
 11 12  1  0
 11 13  1  0
 13 14  2  0
 13 15  1  0
 15 16  1  0
 16 17  1  0
 17 18  2  0
 18 19  1  0
 19 20  2  0
  9 21  1  0
 21 22  1  0
  6 23  1  0
 23 24  1  0
 24  4  1  0
 22  6  1  0
 20 16  1  0
  1 25  1  0
  1 26  1  0
  1 27  1  0
  2 28  1  0
  3 29  1  0
  3 30  1  0
  3 31  1  0
  4 32  1  0
  5 33  1  0
  7 34  1  0
  7 35  1  0
  8 36  1  0
  8 37  1  0
  9 38  1  0
 10 39  1  0
 10 40  1  0
 12 41  1  0
 12 42  1  0
 12 43  1  0
 15 44  1  0
 15 45  1  0
 17 46  1  0
 20 47  1  0
 21 48  1  0
 21 49  1  0
 22 50  1  0
 22 51  1  0
 23 52  1  0
M  END
>  <Energy>  (1064) 
59.728713239447927

>  <compound_id>  (1064) 
3865

>  <target_id>  (1064) 
1

>  <reference_id>  (1064) 
148

>  <inspiration_ids>  (1064) 
[133, 148]

>  <energy_score>  (1064) 
17.318135826359168

>  <distance_score>  (1064) 
3.572705241931432

>  <path>  (1064) 
/opt/xchem-fragalysis-2/maxwin/BulkDock/SCRATCH/505734/C3865-P148/C3865-P148.minimised.mol

>  <scratch_subdir>  (1064) 
/opt/xchem-fragalysis-2/maxwin/BulkDock/SCRATCH/505734/C3865-P148

>  <fragmenstein_runtime>  (1064) 
8.293813943862915

>  <fragmenstein_outcome>  (1064) 
too moved

>  <fragmenstein_mode>  (1064) 
expansion

>  <fragmenstein_error>  (1064) 


$$$$
C3868-P133
     RDKit          3D

 62 65  0  0  0  0  0  0  0  0999 V2000
   -0.1251   -3.4679   34.0783 C   0  0  0  0  0  0  0  0  0  0  0  0
    0.5276   -4.5257   33.2216 N   0  0  0  0  0  0  0  0  0  0  0  0
    0.8142   -5.6838   34.0088 C   0  0  0  0  0  0  0  0  0  0  0  0
    1.7991   -5.9831   34.6313 O   0  0  0  0  0  0  0  0  0  0  0  0
   -0.3419   -6.6633   33.8892 C   0  0  0  0  0  0  0  0  0  0  0  0
   -0.5226   -7.1819   32.5480 N   0  0  0  0  0  0  0  0  0  0  0  0
    0.1500   -6.8885   31.4034 C   0  0  0  0  0  0  0  0  0  0  0  0
   -0.3568   -7.5690   30.4016 N   0  0  0  0  0  0  0  0  0  0  0  0
   -1.3708   -8.3384   30.9054 N   0  0  0  0  0  0  0  0  0  0  0  0
   -1.4570   -8.1010   32.1925 C   0  0  0  0  0  0  0  0  0  0  0  0
    1.4134   -3.3524   32.8214 C   0  0  0  0  0  0  0  0  0  0  0  0
    0.7948   -2.7670   31.6176 N   0  0  0  0  0  0  0  0  0  0  0  0
    1.7084   -2.0073   30.7449 C   0  0  0  0  0  0  0  0  0  0  0  0
    2.7638   -2.7638   29.8838 C   0  0  0  0  0  0  0  0  0  0  0  0
    3.6691   -3.4747   30.7441 O   0  0  0  0  0  0  0  0  0  0  0  0
    2.1442   -3.7741   28.9131 C   0  0  0  0  0  0  0  0  0  0  0  0
    3.2178   -4.4822   28.0632 C   0  0  0  0  0  0  0  0  0  0  0  0
    4.4814   -3.7244   27.9584 N   0  0  0  0  0  0  0  0  0  0  0  0
    5.3061   -4.1903   26.8285 C   0  0  0  0  0  0  0  0  0  0  0  0
    5.9074   -5.5405   27.1045 C   0  0  0  0  0  0  0  0  0  0  0  0
    6.0040   -6.5891   26.1283 C   0  0  0  0  0  0  0  0  0  0  0  0
    6.6676   -7.6997   26.5988 C   0  0  0  0  0  0  0  0  0  0  0  0
    7.1519   -7.5127   28.2244 S   0  0  0  0  0  0  0  0  0  0  0  0
    6.5092   -5.9302   28.2897 C   0  0  0  0  0  0  0  0  0  0  0  0
    4.2077   -2.2899   27.8153 C   0  0  0  0  0  0  0  0  0  0  0  0
    3.5883   -1.7208   29.0948 C   0  0  0  0  0  0  0  0  0  0  0  0
    2.1942   -2.4440   33.7828 C   0  0  0  0  0  0  0  0  0  0  0  0
    1.8723   -1.0844   33.9499 C   0  0  0  0  0  0  0  0  0  0  0  0
    2.5979   -0.2806   34.8281 C   0  0  0  0  0  0  0  0  0  0  0  0
    3.6486   -0.8241   35.5621 C   0  0  0  0  0  0  0  0  0  0  0  0
    3.9761   -2.1700   35.4185 C   0  0  0  0  0  0  0  0  0  0  0  0
    3.2563   -2.9745   34.5351 C   0  0  0  0  0  0  0  0  0  0  0  0
    0.3830   -3.2941   35.0375 H   0  0  0  0  0  0  0  0  0  0  0  0
   -1.0489   -3.9542   34.4251 H   0  0  0  0  0  0  0  0  0  0  0  0
   -0.5337   -2.5758   33.5822 H   0  0  0  0  0  0  0  0  0  0  0  0
   -0.1539   -7.5192   34.5470 H   0  0  0  0  0  0  0  0  0  0  0  0
   -1.2803   -6.1935   34.1963 H   0  0  0  0  0  0  0  0  0  0  0  0
    0.9824   -6.2039   31.3310 H   0  0  0  0  0  0  0  0  0  0  0  0
   -2.1497   -8.5564   32.8848 H   0  0  0  0  0  0  0  0  0  0  0  0
    2.2342   -3.9547   32.4159 H   0  0  0  0  0  0  0  0  0  0  0  0
    0.4037   -3.5418   31.0889 H   0  0  0  0  0  0  0  0  0  0  0  0
    2.2245   -1.2380   31.3276 H   0  0  0  0  0  0  0  0  0  0  0  0
    1.0571   -1.4532   30.0562 H   0  0  0  0  0  0  0  0  0  0  0  0
    4.4278   -3.7288   30.1789 H   0  0  0  0  0  0  0  0  0  0  0  0
    1.4372   -3.2568   28.2536 H   0  0  0  0  0  0  0  0  0  0  0  0
    1.5820   -4.5424   29.4554 H   0  0  0  0  0  0  0  0  0  0  0  0
    3.4318   -5.4559   28.5209 H   0  0  0  0  0  0  0  0  0  0  0  0
    2.7897   -4.6875   27.0745 H   0  0  0  0  0  0  0  0  0  0  0  0
    4.7254   -4.2008   25.8994 H   0  0  0  0  0  0  0  0  0  0  0  0
    6.1494   -3.5044   26.6705 H   0  0  0  0  0  0  0  0  0  0  0  0
    5.6371   -6.5288   25.1090 H   0  0  0  0  0  0  0  0  0  0  0  0
    6.8869   -8.6093   26.0539 H   0  0  0  0  0  0  0  0  0  0  0  0
    6.6094   -5.3485   29.1963 H   0  0  0  0  0  0  0  0  0  0  0  0
    5.1311   -1.7309   27.6176 H   0  0  0  0  0  0  0  0  0  0  0  0
    3.5437   -2.1055   26.9631 H   0  0  0  0  0  0  0  0  0  0  0  0
    4.3896   -1.3333   29.7378 H   0  0  0  0  0  0  0  0  0  0  0  0
    2.9645   -0.8655   28.8065 H   0  0  0  0  0  0  0  0  0  0  0  0
    1.0510   -0.6411   33.3896 H   0  0  0  0  0  0  0  0  0  0  0  0
    2.3412    0.7694   34.9422 H   0  0  0  0  0  0  0  0  0  0  0  0
    4.2128   -0.1984   36.2488 H   0  0  0  0  0  0  0  0  0  0  0  0
    4.7954   -2.5947   35.9929 H   0  0  0  0  0  0  0  0  0  0  0  0
    3.5322   -4.0227   34.4341 H   0  0  0  0  0  0  0  0  0  0  0  0
  1  2  1  0
  2  3  1  0
  3  4  2  0
  3  5  1  0
  5  6  1  0
  6  7  1  0
  7  8  2  0
  8  9  1  0
  9 10  2  0
  2 11  1  0
 11 12  1  0
 12 13  1  0
 13 14  1  0
 14 15  1  0
 14 16  1  0
 16 17  1  0
 17 18  1  0
 18 19  1  0
 19 20  1  0
 20 21  1  0
 21 22  2  0
 22 23  1  0
 23 24  1  0
 18 25  1  0
 25 26  1  0
 11 27  1  0
 27 28  2  0
 28 29  1  0
 29 30  2  0
 30 31  1  0
 31 32  2  0
 10  6  1  0
 26 14  1  0
 32 27  1  0
 24 20  2  0
  1 33  1  0
  1 34  1  0
  1 35  1  0
  5 36  1  0
  5 37  1  0
  7 38  1  0
 10 39  1  0
 11 40  1  0
 12 41  1  0
 13 42  1  0
 13 43  1  0
 15 44  1  0
 16 45  1  0
 16 46  1  0
 17 47  1  0
 17 48  1  0
 19 49  1  0
 19 50  1  0
 21 51  1  0
 22 52  1  0
 24 53  1  0
 25 54  1  0
 25 55  1  0
 26 56  1  0
 26 57  1  0
 28 58  1  0
 29 59  1  0
 30 60  1  0
 31 61  1  0
 32 62  1  0
M  END
>  <Energy>  (1065) 
81.895067835209289

>  <compound_id>  (1065) 
3868

>  <target_id>  (1065) 
1

>  <reference_id>  (1065) 
133

>  <inspiration_ids>  (1065) 
[133, 156]

>  <energy_score>  (1065) 
7.43126750666363

>  <distance_score>  (1065) 
2.2579633581573866

>  <path>  (1065) 
/opt/xchem-fragalysis-2/maxwin/BulkDock/SCRATCH/505734/C3868-P133/C3868-P133.minimised.mol

>  <scratch_subdir>  (1065) 
/opt/xchem-fragalysis-2/maxwin/BulkDock/SCRATCH/505734/C3868-P133

>  <fragmenstein_runtime>  (1065) 
14.701086282730103

>  <fragmenstein_outcome>  (1065) 
too moved

>  <fragmenstein_mode>  (1065) 
expansion

>  <fragmenstein_error>  (1065) 


$$$$
C3868-P156
     RDKit          3D

 62 65  0  0  0  0  0  0  0  0999 V2000
   -0.3629   -3.2970   33.2630 C   0  0  0  0  0  0  0  0  0  0  0  0
    0.5969   -4.3940   32.8679 N   0  0  0  0  0  0  0  0  0  0  0  0
    0.7117   -5.3465   33.9238 C   0  0  0  0  0  0  0  0  0  0  0  0
    1.4778   -5.3992   34.8505 O   0  0  0  0  0  0  0  0  0  0  0  0
   -0.3507   -6.4301   33.8001 C   0  0  0  0  0  0  0  0  0  0  0  0
   -0.5124   -7.0546   32.5011 N   0  0  0  0  0  0  0  0  0  0  0  0
   -1.4077   -8.0478   32.2424 C   0  0  0  0  0  0  0  0  0  0  0  0
   -1.3372   -8.3829   30.9766 N   0  0  0  0  0  0  0  0  0  0  0  0
   -0.3565   -7.6237   30.3953 N   0  0  0  0  0  0  0  0  0  0  0  0
    0.1456   -6.8510   31.3306 C   0  0  0  0  0  0  0  0  0  0  0  0
    1.4776   -3.1977   32.5034 C   0  0  0  0  0  0  0  0  0  0  0  0
    1.2257   -2.9446   31.0724 N   0  0  0  0  0  0  0  0  0  0  0  0
    2.3110   -2.2911   30.3095 C   0  0  0  0  0  0  0  0  0  0  0  0
    3.7746   -2.8418   30.3727 C   0  0  0  0  0  0  0  0  0  0  0  0
    4.2877   -2.5675   31.6852 O   0  0  0  0  0  0  0  0  0  0  0  0
    3.8693   -4.3566   30.1420 C   0  0  0  0  0  0  0  0  0  0  0  0
    3.7479   -4.7461   28.6762 C   0  0  0  0  0  0  0  0  0  0  0  0
    4.8012   -4.0476   27.9403 N   0  0  0  0  0  0  0  0  0  0  0  0
    5.0240   -4.5988   26.6011 C   0  0  0  0  0  0  0  0  0  0  0  0
    5.8330   -5.8699   26.7143 C   0  0  0  0  0  0  0  0  0  0  0  0
    5.7093   -6.9918   25.8287 C   0  0  0  0  0  0  0  0  0  0  0  0
    6.5845   -8.0119   26.1305 C   0  0  0  0  0  0  0  0  0  0  0  0
    7.5496   -7.6506   27.4883 S   0  0  0  0  0  0  0  0  0  0  0  0
    6.8292   -6.1109   27.6493 C   0  0  0  0  0  0  0  0  0  0  0  0
    4.5553   -2.6050   27.9356 C   0  0  0  0  0  0  0  0  0  0  0  0
    4.6726   -2.0840   29.3690 C   0  0  0  0  0  0  0  0  0  0  0  0
    1.8353   -2.0330   33.4367 C   0  0  0  0  0  0  0  0  0  0  0  0
    1.4260   -0.7144   33.1766 C   0  0  0  0  0  0  0  0  0  0  0  0
    1.7725    0.3229   34.0426 C   0  0  0  0  0  0  0  0  0  0  0  0
    2.5250    0.0585   35.1846 C   0  0  0  0  0  0  0  0  0  0  0  0
    2.9334   -1.2424   35.4642 C   0  0  0  0  0  0  0  0  0  0  0  0
    2.5929   -2.2801   34.5972 C   0  0  0  0  0  0  0  0  0  0  0  0
   -1.3177   -3.8298   33.3787 H   0  0  0  0  0  0  0  0  0  0  0  0
   -0.2062   -2.9152   34.2817 H   0  0  0  0  0  0  0  0  0  0  0  0
   -0.6422   -2.5470   32.5085 H   0  0  0  0  0  0  0  0  0  0  0  0
   -0.0952   -7.2404   34.4943 H   0  0  0  0  0  0  0  0  0  0  0  0
   -1.3203   -6.0229   34.0969 H   0  0  0  0  0  0  0  0  0  0  0  0
   -2.0636   -8.4853   32.9817 H   0  0  0  0  0  0  0  0  0  0  0  0
    0.9647   -6.1642   31.1892 H   0  0  0  0  0  0  0  0  0  0  0  0
    2.4273   -3.7461   32.5068 H   0  0  0  0  0  0  0  0  0  0  0  0
    1.0267   -3.8458   30.6503 H   0  0  0  0  0  0  0  0  0  0  0  0
    2.3320   -1.2338   30.5972 H   0  0  0  0  0  0  0  0  0  0  0  0
    1.9790   -2.2976   29.2644 H   0  0  0  0  0  0  0  0  0  0  0  0
    5.2411   -2.7610   31.6958 H   0  0  0  0  0  0  0  0  0  0  0  0
    3.1224   -4.9009   30.7275 H   0  0  0  0  0  0  0  0  0  0  0  0
    4.8375   -4.7111   30.5232 H   0  0  0  0  0  0  0  0  0  0  0  0
    3.8680   -5.8340   28.6108 H   0  0  0  0  0  0  0  0  0  0  0  0
    2.7515   -4.5114   28.2817 H   0  0  0  0  0  0  0  0  0  0  0  0
    4.0745   -4.7743   26.0821 H   0  0  0  0  0  0  0  0  0  0  0  0
    5.6134   -3.9053   25.9875 H   0  0  0  0  0  0  0  0  0  0  0  0
    5.0317   -7.0516   24.9844 H   0  0  0  0  0  0  0  0  0  0  0  0
    6.6972   -8.9525   25.6072 H   0  0  0  0  0  0  0  0  0  0  0  0
    7.1615   -5.4462   28.4353 H   0  0  0  0  0  0  0  0  0  0  0  0
    5.3101   -2.0884   27.3304 H   0  0  0  0  0  0  0  0  0  0  0  0
    3.5763   -2.3645   27.5070 H   0  0  0  0  0  0  0  0  0  0  0  0
    5.7227   -2.1675   29.6834 H   0  0  0  0  0  0  0  0  0  0  0  0
    4.4524   -1.0094   29.3963 H   0  0  0  0  0  0  0  0  0  0  0  0
    0.8346   -0.4846   32.2928 H   0  0  0  0  0  0  0  0  0  0  0  0
    1.4550    1.3397   33.8257 H   0  0  0  0  0  0  0  0  0  0  0  0
    2.7941    0.8686   35.8574 H   0  0  0  0  0  0  0  0  0  0  0  0
    3.5217   -1.4495   36.3543 H   0  0  0  0  0  0  0  0  0  0  0  0
    2.9325   -3.2876   34.8289 H   0  0  0  0  0  0  0  0  0  0  0  0
  1  2  1  0
  2  3  1  0
  3  4  2  0
  3  5  1  0
  5  6  1  0
  6  7  1  0
  7  8  2  0
  8  9  1  0
  9 10  2  0
  2 11  1  0
 11 12  1  0
 12 13  1  0
 13 14  1  0
 14 15  1  0
 14 16  1  0
 16 17  1  0
 17 18  1  0
 18 19  1  0
 19 20  1  0
 20 21  1  0
 21 22  2  0
 22 23  1  0
 23 24  1  0
 18 25  1  0
 25 26  1  0
 11 27  1  0
 27 28  2  0
 28 29  1  0
 29 30  2  0
 30 31  1  0
 31 32  2  0
 10  6  1  0
 26 14  1  0
 32 27  1  0
 24 20  2  0
  1 33  1  0
  1 34  1  0
  1 35  1  0
  5 36  1  0
  5 37  1  0
  7 38  1  0
 10 39  1  0
 11 40  1  0
 12 41  1  0
 13 42  1  0
 13 43  1  0
 15 44  1  0
 16 45  1  0
 16 46  1  0
 17 47  1  0
 17 48  1  0
 19 49  1  0
 19 50  1  0
 21 51  1  0
 22 52  1  0
 24 53  1  0
 25 54  1  0
 25 55  1  0
 26 56  1  0
 26 57  1  0
 28 58  1  0
 29 59  1  0
 30 60  1  0
 31 61  1  0
 32 62  1  0
M  END
>  <Energy>  (1066) 
81.556405479944402

>  <compound_id>  (1066) 
3868

>  <target_id>  (1066) 
1

>  <reference_id>  (1066) 
156

>  <inspiration_ids>  (1066) 
[133, 156]

>  <energy_score>  (1066) 
7.092605151395901

>  <distance_score>  (1066) 
1.6654350507239857

>  <path>  (1066) 
/opt/xchem-fragalysis-2/maxwin/BulkDock/SCRATCH/505734/C3868-P156/C3868-P156.minimised.mol

>  <scratch_subdir>  (1066) 
/opt/xchem-fragalysis-2/maxwin/BulkDock/SCRATCH/505734/C3868-P156

>  <fragmenstein_runtime>  (1066) 
14.425019979476929

>  <fragmenstein_outcome>  (1066) 
too moved

>  <fragmenstein_mode>  (1066) 
expansion

>  <fragmenstein_error>  (1066) 


$$$$
C3710-P133
     RDKit          3D

 54 57  0  0  0  0  0  0  0  0999 V2000
   -1.2665   -5.4458   36.4067 C   0  0  0  0  0  0  0  0  0  0  0  0
    0.1666   -5.1420   36.0658 N   0  0  0  0  0  0  0  0  0  0  0  0
    0.2208   -4.8308   37.5444 C   0  0  0  0  0  0  0  0  0  0  0  0
    0.4650   -5.9847   38.5000 C   0  0  0  0  0  0  0  0  0  0  0  0
   -0.2009   -6.0110   39.7355 C   0  0  0  0  0  0  0  0  0  0  0  0
    0.0071   -7.0612   40.6295 C   0  0  0  0  0  0  0  0  0  0  0  0
    0.8837   -8.0910   40.3000 C   0  0  0  0  0  0  0  0  0  0  0  0
    1.5603   -8.0671   39.0822 C   0  0  0  0  0  0  0  0  0  0  0  0
    1.3576   -7.0177   38.1862 C   0  0  0  0  0  0  0  0  0  0  0  0
    0.2286   -4.2974   34.9466 C   0  0  0  0  0  0  0  0  0  0  0  0
    0.2509   -3.0959   34.8759 O   0  0  0  0  0  0  0  0  0  0  0  0
    0.4033   -5.0319   33.5895 C   0  0  0  0  0  0  0  0  0  0  0  0
    1.2694   -4.3965   32.7227 C   0  0  0  0  0  0  0  0  0  0  0  0
    2.1867   -3.2868   33.1155 C   0  0  0  0  0  0  0  0  0  0  0  0
    2.0919   -2.0351   32.4943 C   0  0  0  0  0  0  0  0  0  0  0  0
    2.9192   -0.9909   32.8994 C   0  0  0  0  0  0  0  0  0  0  0  0
    3.8418   -1.1920   33.9277 C   0  0  0  0  0  0  0  0  0  0  0  0
    3.9755   -2.4446   34.5365 C   0  0  0  0  0  0  0  0  0  0  0  0
    4.8484   -2.5262   35.6627 N   0  0  0  0  0  0  0  0  0  0  0  0
    5.5024   -3.9475   36.2519 S   0  0  0  0  0  0  0  0  0  0  0  0
    4.3258   -4.3879   37.5103 C   0  0  0  0  0  0  0  0  0  0  0  0
    5.5104   -4.9757   35.2343 O   0  0  0  0  0  0  0  0  0  0  0  0
    6.7226   -3.5597   36.9284 O   0  0  0  0  0  0  0  0  0  0  0  0
    3.1430   -3.4855   34.1271 C   0  0  0  0  0  0  0  0  0  0  0  0
    1.3382   -4.8362   31.3250 C   0  0  0  0  0  0  0  0  0  0  0  0
    0.5675   -5.8143   30.8443 C   0  0  0  0  0  0  0  0  0  0  0  0
   -0.2653   -6.5252   31.7271 C   0  0  0  0  0  0  0  0  0  0  0  0
   -1.0948   -7.5090   31.4792 N   0  0  0  0  0  0  0  0  0  0  0  0
   -1.5096   -7.9871   32.6795 N   0  0  0  0  0  0  0  0  0  0  0  0
   -0.9052   -7.3134   33.6344 C   0  0  0  0  0  0  0  0  0  0  0  0
   -0.8225   -7.7479   34.9060 N   0  0  0  0  0  0  0  0  0  0  0  0
   -0.2519   -6.1997   33.0957 N   0  0  0  0  0  0  0  0  0  0  0  0
   -1.8521   -4.5784   36.7509 H   0  0  0  0  0  0  0  0  0  0  0  0
   -1.7760   -5.6577   35.4668 H   0  0  0  0  0  0  0  0  0  0  0  0
   -1.3981   -6.3444   37.0130 H   0  0  0  0  0  0  0  0  0  0  0  0
   -0.4670   -4.0521   37.9199 H   0  0  0  0  0  0  0  0  0  0  0  0
    1.1628   -4.2614   37.6039 H   0  0  0  0  0  0  0  0  0  0  0  0
   -0.9007   -5.2217   40.0052 H   0  0  0  0  0  0  0  0  0  0  0  0
   -0.5246   -7.0817   41.5774 H   0  0  0  0  0  0  0  0  0  0  0  0
    1.0320   -8.9204   40.9861 H   0  0  0  0  0  0  0  0  0  0  0  0
    2.2339   -8.8798   38.8253 H   0  0  0  0  0  0  0  0  0  0  0  0
    1.8897   -7.0174   37.2389 H   0  0  0  0  0  0  0  0  0  0  0  0
    1.3467   -1.8543   31.7226 H   0  0  0  0  0  0  0  0  0  0  0  0
    2.8234   -0.0121   32.4363 H   0  0  0  0  0  0  0  0  0  0  0  0
    4.4480   -0.3503   34.2524 H   0  0  0  0  0  0  0  0  0  0  0  0
    5.4688   -1.7327   35.8267 H   0  0  0  0  0  0  0  0  0  0  0  0
    4.7079   -5.2654   38.0364 H   0  0  0  0  0  0  0  0  0  0  0  0
    4.2190   -3.5552   38.2077 H   0  0  0  0  0  0  0  0  0  0  0  0
    3.3760   -4.6297   37.0354 H   0  0  0  0  0  0  0  0  0  0  0  0
    3.1934   -4.4581   34.6032 H   0  0  0  0  0  0  0  0  0  0  0  0
    2.0078   -4.3034   30.6534 H   0  0  0  0  0  0  0  0  0  0  0  0
    0.5964   -6.0991   29.8010 H   0  0  0  0  0  0  0  0  0  0  0  0
   -0.0205   -7.5103   35.4810 H   0  0  0  0  0  0  0  0  0  0  0  0
   -1.0984   -8.7365   35.0455 H   0  0  0  0  0  0  0  0  0  0  0  0
  1  2  1  0
  2  3  1  0
  3  4  1  0
  4  5  2  0
  5  6  1  0
  6  7  2  0
  7  8  1  0
  8  9  2  0
  2 10  1  0
 10 11  2  0
 10 12  1  0
 12 13  2  0
 13 14  1  0
 14 15  2  0
 15 16  1  0
 16 17  2  0
 17 18  1  0
 18 19  1  0
 19 20  1  0
 20 21  1  0
 20 22  2  0
 20 23  2  0
 18 24  2  0
 13 25  1  0
 25 26  2  0
 26 27  1  0
 27 28  2  0
 28 29  1  0
 29 30  2  0
 30 31  1  0
 30 32  1  0
  9  4  1  0
 32 12  1  0
 24 14  1  0
 32 27  1  0
  1 33  1  0
  1 34  1  0
  1 35  1  0
  3 36  1  0
  3 37  1  0
  5 38  1  0
  6 39  1  0
  7 40  1  0
  8 41  1  0
  9 42  1  0
 15 43  1  0
 16 44  1  0
 17 45  1  0
 19 46  1  0
 21 47  1  0
 21 48  1  0
 21 49  1  0
 24 50  1  0
 25 51  1  0
 26 52  1  0
 31 53  1  0
 31 54  1  0
M  END
>  <Energy>  (1067) 
76.936036995569012

>  <compound_id>  (1067) 
3710

>  <target_id>  (1067) 
1

>  <reference_id>  (1067) 
133

>  <inspiration_ids>  (1067) 
[133, 158]

>  <energy_score>  (1067) 
24.783867240240987

>  <distance_score>  (1067) 
1.057713928171555

>  <path>  (1067) 
/opt/xchem-fragalysis-2/maxwin/BulkDock/SCRATCH/505734/C3710-P133/C3710-P133.minimised.mol

>  <scratch_subdir>  (1067) 
/opt/xchem-fragalysis-2/maxwin/BulkDock/SCRATCH/505734/C3710-P133

>  <fragmenstein_runtime>  (1067) 
3.4739418029785156

>  <fragmenstein_outcome>  (1067) 
too moved

>  <fragmenstein_mode>  (1067) 
expansion

>  <fragmenstein_error>  (1067) 


$$$$
C3710-P158
     RDKit          3D

 54 57  0  0  0  0  0  0  0  0999 V2000
    1.6586   -7.2315   36.0179 C   0  0  0  0  0  0  0  0  0  0  0  0
    1.3403   -5.7715   35.8907 N   0  0  0  0  0  0  0  0  0  0  0  0
    1.8833   -5.7527   37.3125 C   0  0  0  0  0  0  0  0  0  0  0  0
    1.0806   -6.2668   38.5010 C   0  0  0  0  0  0  0  0  0  0  0  0
   -0.0641   -5.5944   38.9468 C   0  0  0  0  0  0  0  0  0  0  0  0
   -0.7478   -6.0334   40.0814 C   0  0  0  0  0  0  0  0  0  0  0  0
   -0.3058   -7.1567   40.7766 C   0  0  0  0  0  0  0  0  0  0  0  0
    0.8236   -7.8422   40.3393 C   0  0  0  0  0  0  0  0  0  0  0  0
    1.5192   -7.3947   39.2154 C   0  0  0  0  0  0  0  0  0  0  0  0
    0.0161   -5.5999   35.3993 C   0  0  0  0  0  0  0  0  0  0  0  0
   -1.0254   -5.4863   35.9849 O   0  0  0  0  0  0  0  0  0  0  0  0
    0.0313   -5.5546   33.8952 C   0  0  0  0  0  0  0  0  0  0  0  0
    0.6827   -4.5602   33.2299 C   0  0  0  0  0  0  0  0  0  0  0  0
    1.3068   -3.4234   33.9316 C   0  0  0  0  0  0  0  0  0  0  0  0
    0.5302   -2.3147   34.2839 C   0  0  0  0  0  0  0  0  0  0  0  0
    1.1118   -1.2385   34.9509 C   0  0  0  0  0  0  0  0  0  0  0  0
    2.4649   -1.2753   35.2873 C   0  0  0  0  0  0  0  0  0  0  0  0
    3.2423   -2.3850   34.9475 C   0  0  0  0  0  0  0  0  0  0  0  0
    4.6321   -2.3935   35.3131 N   0  0  0  0  0  0  0  0  0  0  0  0
    5.1193   -3.6512   36.3533 S   0  0  0  0  0  0  0  0  0  0  0  0
    6.8779   -3.3893   36.3511 C   0  0  0  0  0  0  0  0  0  0  0  0
    4.6191   -3.3370   37.6730 O   0  0  0  0  0  0  0  0  0  0  0  0
    4.8721   -4.9358   35.7333 O   0  0  0  0  0  0  0  0  0  0  0  0
    2.6734   -3.4385   34.2341 C   0  0  0  0  0  0  0  0  0  0  0  0
    0.7200   -4.6082   31.7636 C   0  0  0  0  0  0  0  0  0  0  0  0
    0.1511   -5.6026   31.0653 C   0  0  0  0  0  0  0  0  0  0  0  0
   -0.5336   -6.6308   31.7552 C   0  0  0  0  0  0  0  0  0  0  0  0
   -1.1262   -7.7190   31.3212 N   0  0  0  0  0  0  0  0  0  0  0  0
   -1.6384   -8.3654   32.4134 N   0  0  0  0  0  0  0  0  0  0  0  0
   -1.3882   -7.6513   33.4933 C   0  0  0  0  0  0  0  0  0  0  0  0
   -1.7841   -7.9402   34.7494 N   0  0  0  0  0  0  0  0  0  0  0  0
   -0.6195   -6.5484   33.1434 N   0  0  0  0  0  0  0  0  0  0  0  0
    2.7054   -7.4998   36.2259 H   0  0  0  0  0  0  0  0  0  0  0  0
    0.9114   -7.8019   36.5852 H   0  0  0  0  0  0  0  0  0  0  0  0
    1.5284   -7.6314   35.0006 H   0  0  0  0  0  0  0  0  0  0  0  0
    1.9150   -4.6654   37.4957 H   0  0  0  0  0  0  0  0  0  0  0  0
    2.9582   -5.9898   37.3878 H   0  0  0  0  0  0  0  0  0  0  0  0
   -0.4288   -4.7170   38.4158 H   0  0  0  0  0  0  0  0  0  0  0  0
   -1.6379   -5.5028   40.4129 H   0  0  0  0  0  0  0  0  0  0  0  0
   -0.8491   -7.4998   41.6526 H   0  0  0  0  0  0  0  0  0  0  0  0
    1.1636   -8.7241   40.8744 H   0  0  0  0  0  0  0  0  0  0  0  0
    2.4096   -7.9344   38.9025 H   0  0  0  0  0  0  0  0  0  0  0  0
   -0.5341   -2.2897   34.0539 H   0  0  0  0  0  0  0  0  0  0  0  0
    0.5031   -0.3812   35.2281 H   0  0  0  0  0  0  0  0  0  0  0  0
    2.8907   -0.4363   35.8301 H   0  0  0  0  0  0  0  0  0  0  0  0
    4.9082   -1.5004   35.7251 H   0  0  0  0  0  0  0  0  0  0  0  0
    7.0892   -2.3880   36.7309 H   0  0  0  0  0  0  0  0  0  0  0  0
    7.3308   -4.1371   37.0057 H   0  0  0  0  0  0  0  0  0  0  0  0
    7.2532   -3.5110   35.3333 H   0  0  0  0  0  0  0  0  0  0  0  0
    3.2783   -4.2901   33.9363 H   0  0  0  0  0  0  0  0  0  0  0  0
    1.2303   -3.8008   31.2428 H   0  0  0  0  0  0  0  0  0  0  0  0
    0.1852   -5.6242   29.9820 H   0  0  0  0  0  0  0  0  0  0  0  0
   -1.8522   -8.9425   34.9850 H   0  0  0  0  0  0  0  0  0  0  0  0
   -1.5273   -7.3740   35.5575 H   0  0  0  0  0  0  0  0  0  0  0  0
  1  2  1  0
  2  3  1  0
  3  4  1  0
  4  5  2  0
  5  6  1  0
  6  7  2  0
  7  8  1  0
  8  9  2  0
  2 10  1  0
 10 11  2  0
 10 12  1  0
 12 13  2  0
 13 14  1  0
 14 15  2  0
 15 16  1  0
 16 17  2  0
 17 18  1  0
 18 19  1  0
 19 20  1  0
 20 21  1  0
 20 22  2  0
 20 23  2  0
 18 24  2  0
 13 25  1  0
 25 26  2  0
 26 27  1  0
 27 28  2  0
 28 29  1  0
 29 30  2  0
 30 31  1  0
 30 32  1  0
  9  4  1  0
 32 12  1  0
 24 14  1  0
 32 27  1  0
  1 33  1  0
  1 34  1  0
  1 35  1  0
  3 36  1  0
  3 37  1  0
  5 38  1  0
  6 39  1  0
  7 40  1  0
  8 41  1  0
  9 42  1  0
 15 43  1  0
 16 44  1  0
 17 45  1  0
 19 46  1  0
 21 47  1  0
 21 48  1  0
 21 49  1  0
 24 50  1  0
 25 51  1  0
 26 52  1  0
 31 53  1  0
 31 54  1  0
M  END
>  <Energy>  (1068) 
57.960560518140937

>  <compound_id>  (1068) 
3710

>  <target_id>  (1068) 
1

>  <reference_id>  (1068) 
158

>  <inspiration_ids>  (1068) 
[133, 158]

>  <energy_score>  (1068) 
5.80839076281395

>  <distance_score>  (1068) 
1.1969742408527084

>  <path>  (1068) 
/opt/xchem-fragalysis-2/maxwin/BulkDock/SCRATCH/505734/C3710-P158/C3710-P158.minimised.mol

>  <scratch_subdir>  (1068) 
/opt/xchem-fragalysis-2/maxwin/BulkDock/SCRATCH/505734/C3710-P158

>  <fragmenstein_runtime>  (1068) 
4.975243806838989

>  <fragmenstein_outcome>  (1068) 
too moved

>  <fragmenstein_mode>  (1068) 
expansion

>  <fragmenstein_error>  (1068) 


$$$$
C3869-P133
     RDKit          3D

 44 45  0  0  0  0  0  0  0  0999 V2000
   -0.1546   -8.1094   31.2785 C   0  0  0  0  0  0  0  0  0  0  0  0
    0.6701   -7.2455   31.7526 N   0  0  0  0  0  0  0  0  0  0  0  0
    0.6153   -6.9357   33.1866 C   0  0  0  0  0  0  0  0  0  0  0  0
   -0.6625   -6.2269   33.6310 C   0  0  0  0  0  0  0  0  0  0  0  0
   -1.6795   -7.2703   34.0674 C   0  0  0  0  0  0  0  0  0  0  0  0
   -1.0380   -5.1736   32.7223 N   0  0  0  0  0  0  0  0  0  0  0  0
   -0.9507   -5.1099   31.3709 C   0  0  0  0  0  0  0  0  0  0  0  0
   -1.2483   -3.9105   30.9458 N   0  0  0  0  0  0  0  0  0  0  0  0
   -1.4558   -3.1363   32.0367 N   0  0  0  0  0  0  0  0  0  0  0  0
   -1.2456   -3.8778   33.0960 C   0  0  0  0  0  0  0  0  0  0  0  0
    1.8096   -6.2713   33.6898 N   0  0  0  0  0  0  0  0  0  0  0  0
    1.8194   -6.1692   35.1441 C   0  0  0  0  0  0  0  0  0  0  0  0
    2.4138   -5.1922   32.8957 C   0  0  0  0  0  0  0  0  0  0  0  0
    2.4331   -3.7678   33.4238 C   0  0  0  0  0  0  0  0  0  0  0  0
    1.7234   -2.7914   32.7051 C   0  0  0  0  0  0  0  0  0  0  0  0
    1.6421   -1.4737   33.1450 C   0  0  0  0  0  0  0  0  0  0  0  0
    2.2542   -1.1068   34.3333 C   0  0  0  0  0  0  0  0  0  0  0  0
    3.0170   -2.0352   35.0484 C   0  0  0  0  0  0  0  0  0  0  0  0
    3.6621   -1.6036   36.3358 C   0  0  0  0  0  0  0  0  0  0  0  0
    3.1966   -3.3428   34.5374 C   0  0  0  0  0  0  0  0  0  0  0  0
    4.2654   -4.2013   35.1719 C   0  0  0  0  0  0  0  0  0  0  0  0
   -0.1331   -8.3390   30.2002 H   0  0  0  0  0  0  0  0  0  0  0  0
   -0.8869   -8.6742   31.8731 H   0  0  0  0  0  0  0  0  0  0  0  0
    0.6474   -7.8972   33.6948 H   0  0  0  0  0  0  0  0  0  0  0  0
   -0.4759   -5.6986   34.5735 H   0  0  0  0  0  0  0  0  0  0  0  0
   -2.1572   -7.7577   33.2205 H   0  0  0  0  0  0  0  0  0  0  0  0
   -2.4167   -6.8273   34.7290 H   0  0  0  0  0  0  0  0  0  0  0  0
   -1.2092   -8.0442   34.6819 H   0  0  0  0  0  0  0  0  0  0  0  0
   -0.6866   -5.8898   30.6844 H   0  0  0  0  0  0  0  0  0  0  0  0
   -1.2587   -3.5327   34.1214 H   0  0  0  0  0  0  0  0  0  0  0  0
    1.2651   -6.9910   35.6162 H   0  0  0  0  0  0  0  0  0  0  0  0
    1.3975   -5.2349   35.5254 H   0  0  0  0  0  0  0  0  0  0  0  0
    2.8357   -6.2976   35.5200 H   0  0  0  0  0  0  0  0  0  0  0  0
    3.4636   -5.4600   32.7435 H   0  0  0  0  0  0  0  0  0  0  0  0
    2.0144   -5.1884   31.8747 H   0  0  0  0  0  0  0  0  0  0  0  0
    1.2093   -3.0497   31.7803 H   0  0  0  0  0  0  0  0  0  0  0  0
    1.0621   -0.7515   32.5754 H   0  0  0  0  0  0  0  0  0  0  0  0
    2.1407   -0.0865   34.6917 H   0  0  0  0  0  0  0  0  0  0  0  0
    4.7394   -1.4709   36.1969 H   0  0  0  0  0  0  0  0  0  0  0  0
    3.2498   -0.6518   36.6883 H   0  0  0  0  0  0  0  0  0  0  0  0
    3.4806   -2.3380   37.1270 H   0  0  0  0  0  0  0  0  0  0  0  0
    4.4891   -5.1027   34.5980 H   0  0  0  0  0  0  0  0  0  0  0  0
    3.9790   -4.4895   36.1876 H   0  0  0  0  0  0  0  0  0  0  0  0
    5.2090   -3.6456   35.2187 H   0  0  0  0  0  0  0  0  0  0  0  0
  1  2  2  0
  2  3  1  0
  3  4  1  0
  4  5  1  0
  4  6  1  0
  6  7  1  0
  7  8  2  0
  8  9  1  0
  9 10  2  0
  3 11  1  0
 11 12  1  0
 11 13  1  0
 13 14  1  0
 14 15  2  0
 15 16  1  0
 16 17  2  0
 17 18  1  0
 18 19  1  0
 18 20  2  0
 20 21  1  0
 10  6  1  0
 20 14  1  0
  1 22  1  0
  1 23  1  0
  3 24  1  0
  4 25  1  0
  5 26  1  0
  5 27  1  0
  5 28  1  0
  7 29  1  0
 10 30  1  0
 12 31  1  0
 12 32  1  0
 12 33  1  0
 13 34  1  0
 13 35  1  0
 15 36  1  0
 16 37  1  0
 17 38  1  0
 19 39  1  0
 19 40  1  0
 19 41  1  0
 21 42  1  0
 21 43  1  0
 21 44  1  0
M  END
>  <Energy>  (1069) 
63.989317483437844

>  <compound_id>  (1069) 
3869

>  <target_id>  (1069) 
1

>  <reference_id>  (1069) 
133

>  <inspiration_ids>  (1069) 
[133, 159]

>  <energy_score>  (1069) 
8.612224295774695

>  <distance_score>  (1069) 
2.0241494229978994

>  <path>  (1069) 
/opt/xchem-fragalysis-2/maxwin/BulkDock/SCRATCH/505734/C3869-P133/C3869-P133.minimised.mol

>  <scratch_subdir>  (1069) 
/opt/xchem-fragalysis-2/maxwin/BulkDock/SCRATCH/505734/C3869-P133

>  <fragmenstein_runtime>  (1069) 
6.108853101730347

>  <fragmenstein_outcome>  (1069) 
too moved

>  <fragmenstein_mode>  (1069) 
expansion

>  <fragmenstein_error>  (1069) 


$$$$
C3869-P159
     RDKit          3D

 44 45  0  0  0  0  0  0  0  0999 V2000
   -1.4576   -3.3062   32.6311 C   0  0  0  0  0  0  0  0  0  0  0  0
   -1.1937   -4.5557   32.4517 N   0  0  0  0  0  0  0  0  0  0  0  0
   -0.6611   -5.2373   33.6511 C   0  0  0  0  0  0  0  0  0  0  0  0
   -0.4840   -6.7621   33.4758 C   0  0  0  0  0  0  0  0  0  0  0  0
   -1.3620   -7.5247   34.4799 C   0  0  0  0  0  0  0  0  0  0  0  0
   -0.5901   -7.1942   32.1085 N   0  0  0  0  0  0  0  0  0  0  0  0
   -1.2189   -8.2953   31.6608 C   0  0  0  0  0  0  0  0  0  0  0  0
   -0.9194   -8.4677   30.3981 N   0  0  0  0  0  0  0  0  0  0  0  0
   -0.1181   -7.4433   29.9964 N   0  0  0  0  0  0  0  0  0  0  0  0
    0.0565   -6.6665   31.0307 C   0  0  0  0  0  0  0  0  0  0  0  0
    0.5007   -4.5790   34.2115 N   0  0  0  0  0  0  0  0  0  0  0  0
    0.7384   -4.9758   35.5952 C   0  0  0  0  0  0  0  0  0  0  0  0
    1.6818   -4.5335   33.3574 C   0  0  0  0  0  0  0  0  0  0  0  0
    2.4403   -3.2566   33.6234 C   0  0  0  0  0  0  0  0  0  0  0  0
    2.0591   -2.1168   32.8851 C   0  0  0  0  0  0  0  0  0  0  0  0
    2.5178   -0.8564   33.2356 C   0  0  0  0  0  0  0  0  0  0  0  0
    3.3089   -0.7141   34.3671 C   0  0  0  0  0  0  0  0  0  0  0  0
    3.7080   -1.8353   35.1102 C   0  0  0  0  0  0  0  0  0  0  0  0
    4.4765   -1.6292   36.3834 C   0  0  0  0  0  0  0  0  0  0  0  0
    3.3595   -3.1312   34.6825 C   0  0  0  0  0  0  0  0  0  0  0  0
    3.9480   -4.3199   35.4028 C   0  0  0  0  0  0  0  0  0  0  0  0
   -1.8508   -2.7081   31.7937 H   0  0  0  0  0  0  0  0  0  0  0  0
   -1.3235   -2.7764   33.5908 H   0  0  0  0  0  0  0  0  0  0  0  0
   -1.4028   -5.1159   34.4299 H   0  0  0  0  0  0  0  0  0  0  0  0
    0.5439   -7.0392   33.7469 H   0  0  0  0  0  0  0  0  0  0  0  0
   -1.0511   -8.5653   34.5343 H   0  0  0  0  0  0  0  0  0  0  0  0
   -2.4147   -7.5105   34.1984 H   0  0  0  0  0  0  0  0  0  0  0  0
   -1.2657   -7.1205   35.4918 H   0  0  0  0  0  0  0  0  0  0  0  0
   -1.8497   -8.9425   32.2515 H   0  0  0  0  0  0  0  0  0  0  0  0
    0.6272   -5.7561   31.0157 H   0  0  0  0  0  0  0  0  0  0  0  0
   -0.1939   -5.0549   36.1672 H   0  0  0  0  0  0  0  0  0  0  0  0
    1.3094   -4.2119   36.1270 H   0  0  0  0  0  0  0  0  0  0  0  0
    1.2646   -5.9328   35.6733 H   0  0  0  0  0  0  0  0  0  0  0  0
    2.3035   -5.4286   33.4470 H   0  0  0  0  0  0  0  0  0  0  0  0
    1.4094   -4.4854   32.3023 H   0  0  0  0  0  0  0  0  0  0  0  0
    1.3607   -2.2067   32.0559 H   0  0  0  0  0  0  0  0  0  0  0  0
    2.2111    0.0177   32.6682 H   0  0  0  0  0  0  0  0  0  0  0  0
    3.6068    0.2852   34.6780 H   0  0  0  0  0  0  0  0  0  0  0  0
    5.4963   -2.0135   36.2825 H   0  0  0  0  0  0  0  0  0  0  0  0
    4.5502   -0.5664   36.6393 H   0  0  0  0  0  0  0  0  0  0  0  0
    3.9769   -2.1255   37.2216 H   0  0  0  0  0  0  0  0  0  0  0  0
    3.7756   -5.2641   34.8831 H   0  0  0  0  0  0  0  0  0  0  0  0
    3.5439   -4.4052   36.4155 H   0  0  0  0  0  0  0  0  0  0  0  0
    5.0368   -4.2149   35.4673 H   0  0  0  0  0  0  0  0  0  0  0  0
  1  2  2  0
  2  3  1  0
  3  4  1  0
  4  5  1  0
  4  6  1  0
  6  7  1  0
  7  8  2  0
  8  9  1  0
  9 10  2  0
  3 11  1  0
 11 12  1  0
 11 13  1  0
 13 14  1  0
 14 15  2  0
 15 16  1  0
 16 17  2  0
 17 18  1  0
 18 19  1  0
 18 20  2  0
 20 21  1  0
 10  6  1  0
 20 14  1  0
  1 22  1  0
  1 23  1  0
  3 24  1  0
  4 25  1  0
  5 26  1  0
  5 27  1  0
  5 28  1  0
  7 29  1  0
 10 30  1  0
 12 31  1  0
 12 32  1  0
 12 33  1  0
 13 34  1  0
 13 35  1  0
 15 36  1  0
 16 37  1  0
 17 38  1  0
 19 39  1  0
 19 40  1  0
 19 41  1  0
 21 42  1  0
 21 43  1  0
 21 44  1  0
M  END
>  <Energy>  (1070) 
46.954572513179215

>  <compound_id>  (1070) 
3869

>  <target_id>  (1070) 
1

>  <reference_id>  (1070) 
159

>  <inspiration_ids>  (1070) 
[133, 159]

>  <energy_score>  (1070) 
-8.422520674484304

>  <distance_score>  (1070) 
1.3676921347884512

>  <path>  (1070) 
/opt/xchem-fragalysis-2/maxwin/BulkDock/SCRATCH/505734/C3869-P159/C3869-P159.minimised.mol

>  <scratch_subdir>  (1070) 
/opt/xchem-fragalysis-2/maxwin/BulkDock/SCRATCH/505734/C3869-P159

>  <fragmenstein_runtime>  (1070) 
6.6548357009887695

>  <fragmenstein_outcome>  (1070) 
too moved

>  <fragmenstein_mode>  (1070) 
expansion

>  <fragmenstein_error>  (1070) 


$$$$
C3814-P133
     RDKit          3D

 54 57  0  0  0  0  0  0  0  0999 V2000
    4.9426    0.0162   34.7393 C   0  0  0  0  0  0  0  0  0  0  0  0
    3.6466   -0.1815   35.3069 O   0  0  0  0  0  0  0  0  0  0  0  0
    3.0308   -1.2696   34.7490 C   0  0  0  0  0  0  0  0  0  0  0  0
    1.8994   -1.0216   33.9732 C   0  0  0  0  0  0  0  0  0  0  0  0
    1.2241   -2.0816   33.3648 C   0  0  0  0  0  0  0  0  0  0  0  0
    1.6832   -3.3964   33.5206 C   0  0  0  0  0  0  0  0  0  0  0  0
    0.9675   -4.5071   32.8560 C   0  0  0  0  0  0  0  0  0  0  0  0
    0.9706   -4.5973   31.3907 C   0  0  0  0  0  0  0  0  0  0  0  0
    0.3472   -5.5867   30.7327 C   0  0  0  0  0  0  0  0  0  0  0  0
   -0.3491   -6.5794   31.4618 C   0  0  0  0  0  0  0  0  0  0  0  0
   -1.0166   -7.6377   31.0659 N   0  0  0  0  0  0  0  0  0  0  0  0
   -1.5191   -8.2435   32.1861 N   0  0  0  0  0  0  0  0  0  0  0  0
   -1.1648   -7.5472   33.2472 C   0  0  0  0  0  0  0  0  0  0  0  0
   -1.5036   -7.8237   34.5274 N   0  0  0  0  0  0  0  0  0  0  0  0
   -0.3806   -6.4733   32.8493 N   0  0  0  0  0  0  0  0  0  0  0  0
    0.2843   -5.4583   33.5503 C   0  0  0  0  0  0  0  0  0  0  0  0
    0.2864   -5.4047   35.0403 C   0  0  0  0  0  0  0  0  0  0  0  0
   -0.3469   -4.6664   35.6529 O   0  0  0  0  0  0  0  0  0  0  0  0
    1.3789   -6.4705   35.4476 N   0  0  0  0  0  0  0  0  0  0  0  0
    1.8411   -6.9475   36.5618 C   0  0  0  0  0  0  0  0  0  0  0  0
    2.0754   -6.6264   37.2852 C   0  0  0  0  0  0  0  0  0  0  0  0
    1.0010   -6.5377   38.6015 C   0  0  0  0  0  0  0  0  0  0  0  0
    0.9389   -7.6264   39.4837 C   0  0  0  0  0  0  0  0  0  0  0  0
    0.1035   -7.5503   40.5953 C   0  0  0  0  0  0  0  0  0  0  0  0
   -0.6618   -6.4034   40.8178 C   0  0  0  0  0  0  0  0  0  0  0  0
   -0.6101   -5.3334   39.9209 C   0  0  0  0  0  0  0  0  0  0  0  0
    0.2242   -5.3914   38.8074 C   0  0  0  0  0  0  0  0  0  0  0  0
    2.8217   -3.6366   34.2986 C   0  0  0  0  0  0  0  0  0  0  0  0
    3.4575   -2.5844   34.9571 C   0  0  0  0  0  0  0  0  0  0  0  0
    4.5013   -2.9259   35.7760 O   0  0  0  0  0  0  0  0  0  0  0  0
    4.2094   -2.6046   37.1376 C   0  0  0  0  0  0  0  0  0  0  0  0
    5.2687    1.0273   35.0016 H   0  0  0  0  0  0  0  0  0  0  0  0
    4.9235   -0.0575   33.6457 H   0  0  0  0  0  0  0  0  0  0  0  0
    5.6690   -0.6869   35.1571 H   0  0  0  0  0  0  0  0  0  0  0  0
    1.5411   -0.0038   33.8440 H   0  0  0  0  0  0  0  0  0  0  0  0
    0.3327   -1.8727   32.7763 H   0  0  0  0  0  0  0  0  0  0  0  0
    1.4960   -3.8239   30.8350 H   0  0  0  0  0  0  0  0  0  0  0  0
    0.3484   -5.6303   29.6514 H   0  0  0  0  0  0  0  0  0  0  0  0
   -0.9309   -7.4850   35.2913 H   0  0  0  0  0  0  0  0  0  0  0  0
   -1.6929   -8.8266   34.6906 H   0  0  0  0  0  0  0  0  0  0  0  0
    2.8406   -7.1451   35.7963 H   0  0  0  0  0  0  0  0  0  0  0  0
    2.0404   -8.2104   36.4535 H   0  0  0  0  0  0  0  0  0  0  0  0
    0.7435   -7.5456   36.5535 H   0  0  0  0  0  0  0  0  0  0  0  0
    3.1829   -7.0829   37.6791 H   0  0  0  0  0  0  0  0  0  0  0  0
    2.4424   -5.4712   37.4303 H   0  0  0  0  0  0  0  0  0  0  0  0
    1.5199   -8.5278   39.3097 H   0  0  0  0  0  0  0  0  0  0  0  0
    0.0360   -8.3888   41.2836 H   0  0  0  0  0  0  0  0  0  0  0  0
   -1.3244   -6.3502   41.6784 H   0  0  0  0  0  0  0  0  0  0  0  0
   -1.2355   -4.4587   40.0858 H   0  0  0  0  0  0  0  0  0  0  0  0
    0.2560   -4.5529   38.1165 H   0  0  0  0  0  0  0  0  0  0  0  0
    3.2014   -4.6458   34.4269 H   0  0  0  0  0  0  0  0  0  0  0  0
    4.8631   -3.2145   37.7686 H   0  0  0  0  0  0  0  0  0  0  0  0
    4.4312   -1.5542   37.3470 H   0  0  0  0  0  0  0  0  0  0  0  0
    3.1724   -2.8394   37.4055 H   0  0  0  0  0  0  0  0  0  0  0  0
  1  2  1  0
  2  3  1  0
  3  4  2  0
  4  5  1  0
  5  6  2  0
  6  7  1  0
  7  8  1  0
  8  9  2  0
  9 10  1  0
 10 11  2  0
 11 12  1  0
 12 13  2  0
 13 14  1  0
 13 15  1  0
 15 16  1  0
 16 17  1  0
 17 18  2  0
 17 19  1  0
 19 20  1  0
 19 21  1  0
 21 22  1  0
 22 23  2  0
 23 24  1  0
 24 25  2  0
 25 26  1  0
 26 27  2  0
  6 28  1  0
 28 29  2  0
 29 30  1  0
 30 31  1  0
 29  3  1  0
 16  7  2  0
 27 22  1  0
 15 10  1  0
  1 32  1  0
  1 33  1  0
  1 34  1  0
  4 35  1  0
  5 36  1  0
  8 37  1  0
  9 38  1  0
 14 39  1  0
 14 40  1  0
 20 41  1  0
 20 42  1  0
 20 43  1  0
 21 44  1  0
 21 45  1  0
 23 46  1  0
 24 47  1  0
 25 48  1  0
 26 49  1  0
 27 50  1  0
 28 51  1  0
 31 52  1  0
 31 53  1  0
 31 54  1  0
M  END
>  <Energy>  (1071) 
808.39385791149539

>  <compound_id>  (1071) 
3814

>  <target_id>  (1071) 
1

>  <reference_id>  (1071) 
133

>  <inspiration_ids>  (1071) 
[133, 163]

>  <energy_score>  (1071) 
697.2593424544779

>  <distance_score>  (1071) 
1.1687695767309116

>  <path>  (1071) 
/opt/xchem-fragalysis-2/maxwin/BulkDock/SCRATCH/505734/C3814-P133/C3814-P133.minimised.mol

>  <scratch_subdir>  (1071) 
/opt/xchem-fragalysis-2/maxwin/BulkDock/SCRATCH/505734/C3814-P133

>  <fragmenstein_runtime>  (1071) 
6.0780189037323

>  <fragmenstein_outcome>  (1071) 
too moved

>  <fragmenstein_mode>  (1071) 
expansion

>  <fragmenstein_error>  (1071) 


$$$$
C3814-P163
     RDKit          3D

 54 57  0  0  0  0  0  0  0  0999 V2000
    5.1008    0.0229   35.1536 C   0  0  0  0  0  0  0  0  0  0  0  0
    3.6770   -0.0040   35.1935 O   0  0  0  0  0  0  0  0  0  0  0  0
    3.1069   -1.1333   34.6623 C   0  0  0  0  0  0  0  0  0  0  0  0
    1.9721   -0.8838   33.8859 C   0  0  0  0  0  0  0  0  0  0  0  0
    1.2756   -1.9353   33.2969 C   0  0  0  0  0  0  0  0  0  0  0  0
    1.7018   -3.2526   33.4912 C   0  0  0  0  0  0  0  0  0  0  0  0
    0.9751   -4.3572   32.8303 C   0  0  0  0  0  0  0  0  0  0  0  0
    1.0005   -4.4502   31.3628 C   0  0  0  0  0  0  0  0  0  0  0  0
    0.3962   -5.4419   30.6906 C   0  0  0  0  0  0  0  0  0  0  0  0
   -0.2982   -6.4444   31.4057 C   0  0  0  0  0  0  0  0  0  0  0  0
   -0.9537   -7.5091   31.0010 N   0  0  0  0  0  0  0  0  0  0  0  0
   -1.4484   -8.1345   32.1139 N   0  0  0  0  0  0  0  0  0  0  0  0
   -1.0939   -7.4451   33.1788 C   0  0  0  0  0  0  0  0  0  0  0  0
   -1.3890   -7.7611   34.4630 N   0  0  0  0  0  0  0  0  0  0  0  0
   -0.3397   -6.3431   32.7924 N   0  0  0  0  0  0  0  0  0  0  0  0
    0.2857   -5.3091   33.5168 C   0  0  0  0  0  0  0  0  0  0  0  0
    0.2168   -5.3243   35.0149 C   0  0  0  0  0  0  0  0  0  0  0  0
    0.5930   -6.2431   35.6156 O   0  0  0  0  0  0  0  0  0  0  0  0
   -0.4860   -4.0300   35.4378 N   0  0  0  0  0  0  0  0  0  0  0  0
   -0.9873   -3.5853   36.5350 C   0  0  0  0  0  0  0  0  0  0  0  0
   -0.7699   -3.4972   37.3220 C   0  0  0  0  0  0  0  0  0  0  0  0
    0.8076   -3.5259   37.9970 C   0  0  0  0  0  0  0  0  0  0  0  0
    1.5730   -2.3534   37.9964 C   0  0  0  0  0  0  0  0  0  0  0  0
    2.8177   -2.3608   38.6218 C   0  0  0  0  0  0  0  0  0  0  0  0
    3.2921   -3.5261   39.2299 C   0  0  0  0  0  0  0  0  0  0  0  0
    2.5336   -4.6990   39.1979 C   0  0  0  0  0  0  0  0  0  0  0  0
    1.2875   -4.7087   38.5751 C   0  0  0  0  0  0  0  0  0  0  0  0
    2.8318   -3.5047   34.2818 C   0  0  0  0  0  0  0  0  0  0  0  0
    3.5305   -2.4541   34.8908 C   0  0  0  0  0  0  0  0  0  0  0  0
    4.6022   -2.6354   35.7233 O   0  0  0  0  0  0  0  0  0  0  0  0
    4.9535   -3.9682   36.0692 C   0  0  0  0  0  0  0  0  0  0  0  0
    5.5144   -0.3778   36.0836 H   0  0  0  0  0  0  0  0  0  0  0  0
    5.4088    1.0710   35.0847 H   0  0  0  0  0  0  0  0  0  0  0  0
    5.5103   -0.4983   34.2808 H   0  0  0  0  0  0  0  0  0  0  0  0
    1.6346    0.1389   33.7375 H   0  0  0  0  0  0  0  0  0  0  0  0
    0.3944   -1.7192   32.6969 H   0  0  0  0  0  0  0  0  0  0  0  0
    1.5306   -3.6733   30.8155 H   0  0  0  0  0  0  0  0  0  0  0  0
    0.4200   -5.4813   29.6091 H   0  0  0  0  0  0  0  0  0  0  0  0
   -1.5976   -8.7612   34.5787 H   0  0  0  0  0  0  0  0  0  0  0  0
   -0.7125   -7.4858   35.1809 H   0  0  0  0  0  0  0  0  0  0  0  0
   -1.7654   -4.5735   36.3601 H   0  0  0  0  0  0  0  0  0  0  0  0
   -2.1744   -3.1412   36.2814 H   0  0  0  0  0  0  0  0  0  0  0  0
   -0.8776   -2.5020   35.8798 H   0  0  0  0  0  0  0  0  0  0  0  0
   -1.0673   -2.3450   37.7547 H   0  0  0  0  0  0  0  0  0  0  0  0
   -1.2326   -4.3325   38.1176 H   0  0  0  0  0  0  0  0  0  0  0  0
    1.2138   -1.4441   37.5227 H   0  0  0  0  0  0  0  0  0  0  0  0
    3.4255   -1.4592   38.6262 H   0  0  0  0  0  0  0  0  0  0  0  0
    4.2636   -3.5226   39.7177 H   0  0  0  0  0  0  0  0  0  0  0  0
    2.9143   -5.6053   39.6623 H   0  0  0  0  0  0  0  0  0  0  0  0
    0.7017   -5.6238   38.5535 H   0  0  0  0  0  0  0  0  0  0  0  0
    3.1430   -4.5349   34.4191 H   0  0  0  0  0  0  0  0  0  0  0  0
    5.3579   -4.4981   35.2006 H   0  0  0  0  0  0  0  0  0  0  0  0
    5.7421   -3.9206   36.8262 H   0  0  0  0  0  0  0  0  0  0  0  0
    4.1094   -4.5144   36.5003 H   0  0  0  0  0  0  0  0  0  0  0  0
  1  2  1  0
  2  3  1  0
  3  4  2  0
  4  5  1  0
  5  6  2  0
  6  7  1  0
  7  8  1  0
  8  9  2  0
  9 10  1  0
 10 11  2  0
 11 12  1  0
 12 13  2  0
 13 14  1  0
 13 15  1  0
 15 16  1  0
 16 17  1  0
 17 18  2  0
 17 19  1  0
 19 20  1  0
 19 21  1  0
 21 22  1  0
 22 23  2  0
 23 24  1  0
 24 25  2  0
 25 26  1  0
 26 27  2  0
  6 28  1  0
 28 29  2  0
 29 30  1  0
 30 31  1  0
 29  3  1  0
 16  7  2  0
 27 22  1  0
 15 10  1  0
  1 32  1  0
  1 33  1  0
  1 34  1  0
  4 35  1  0
  5 36  1  0
  8 37  1  0
  9 38  1  0
 14 39  1  0
 14 40  1  0
 20 41  1  0
 20 42  1  0
 20 43  1  0
 21 44  1  0
 21 45  1  0
 23 46  1  0
 24 47  1  0
 25 48  1  0
 26 49  1  0
 27 50  1  0
 28 51  1  0
 31 52  1  0
 31 53  1  0
 31 54  1  0
M  END
>  <Energy>  (1072) 
810.43701327985104

>  <compound_id>  (1072) 
3814

>  <target_id>  (1072) 
1

>  <reference_id>  (1072) 
163

>  <inspiration_ids>  (1072) 
[133, 163]

>  <energy_score>  (1072) 
699.3024978228361

>  <distance_score>  (1072) 
1.2428128702041727

>  <path>  (1072) 
/opt/xchem-fragalysis-2/maxwin/BulkDock/SCRATCH/505734/C3814-P163/C3814-P163.minimised.mol

>  <scratch_subdir>  (1072) 
/opt/xchem-fragalysis-2/maxwin/BulkDock/SCRATCH/505734/C3814-P163

>  <fragmenstein_runtime>  (1072) 
5.377808570861816

>  <fragmenstein_outcome>  (1072) 
too moved

>  <fragmenstein_mode>  (1072) 
expansion

>  <fragmenstein_error>  (1072) 


$$$$
C3814-P133
     RDKit          3D

 54 57  0  0  0  0  0  0  0  0999 V2000
    5.5446    0.0056   34.6539 C   0  0  0  0  0  0  0  0  0  0  0  0
    4.4314   -0.5308   35.3549 O   0  0  0  0  0  0  0  0  0  0  0  0
    3.6781   -1.4723   34.7089 C   0  0  0  0  0  0  0  0  0  0  0  0
    4.0668   -2.1325   33.5442 C   0  0  0  0  0  0  0  0  0  0  0  0
    3.2235   -3.0814   32.9554 C   0  0  0  0  0  0  0  0  0  0  0  0
    1.9556   -3.3612   33.4895 C   0  0  0  0  0  0  0  0  0  0  0  0
    1.1016   -4.3811   32.8242 C   0  0  0  0  0  0  0  0  0  0  0  0
    0.9193   -4.3219   31.3599 C   0  0  0  0  0  0  0  0  0  0  0  0
    0.2496   -5.2576   30.6690 C   0  0  0  0  0  0  0  0  0  0  0  0
   -0.3281   -6.3455   31.3607 C   0  0  0  0  0  0  0  0  0  0  0  0
   -0.9470   -7.4238   30.9374 N   0  0  0  0  0  0  0  0  0  0  0  0
   -1.3173   -8.1440   32.0451 N   0  0  0  0  0  0  0  0  0  0  0  0
   -0.9501   -7.4811   33.1216 C   0  0  0  0  0  0  0  0  0  0  0  0
   -1.0994   -7.8539   34.4056 N   0  0  0  0  0  0  0  0  0  0  0  0
   -0.2583   -6.3395   32.7461 N   0  0  0  0  0  0  0  0  0  0  0  0
    0.4733   -5.3943   33.4865 C   0  0  0  0  0  0  0  0  0  0  0  0
    0.5072   -5.5137   34.9807 C   0  0  0  0  0  0  0  0  0  0  0  0
   -0.5085   -5.2916   35.5847 O   0  0  0  0  0  0  0  0  0  0  0  0
    1.8141   -5.8219   35.4490 N   0  0  0  0  0  0  0  0  0  0  0  0
    1.9803   -7.3059   35.5736 C   0  0  0  0  0  0  0  0  0  0  0  0
    2.3801   -5.8595   36.8598 C   0  0  0  0  0  0  0  0  0  0  0  0
    1.5134   -6.2339   38.0561 C   0  0  0  0  0  0  0  0  0  0  0  0
    0.4673   -5.4008   38.4780 C   0  0  0  0  0  0  0  0  0  0  0  0
   -0.3079   -5.7372   39.5891 C   0  0  0  0  0  0  0  0  0  0  0  0
   -0.0450   -6.9084   40.2956 C   0  0  0  0  0  0  0  0  0  0  0  0
    0.9893   -7.7470   39.8893 C   0  0  0  0  0  0  0  0  0  0  0  0
    1.7707   -7.4082   38.7831 C   0  0  0  0  0  0  0  0  0  0  0  0
    1.5559   -2.6690   34.6352 C   0  0  0  0  0  0  0  0  0  0  0  0
    2.4353   -1.7898   35.2745 C   0  0  0  0  0  0  0  0  0  0  0  0
    1.9814   -1.2536   36.4528 O   0  0  0  0  0  0  0  0  0  0  0  0
    2.8496   -1.5515   37.5472 C   0  0  0  0  0  0  0  0  0  0  0  0
    5.9488    0.8299   35.2493 H   0  0  0  0  0  0  0  0  0  0  0  0
    5.2477    0.4121   33.6812 H   0  0  0  0  0  0  0  0  0  0  0  0
    6.3354   -0.7436   34.5448 H   0  0  0  0  0  0  0  0  0  0  0  0
    5.0288   -1.9485   33.0778 H   0  0  0  0  0  0  0  0  0  0  0  0
    3.5763   -3.6019   32.0675 H   0  0  0  0  0  0  0  0  0  0  0  0
    1.3224   -3.4591   30.8335 H   0  0  0  0  0  0  0  0  0  0  0  0
    0.1110   -5.1768   29.5971 H   0  0  0  0  0  0  0  0  0  0  0  0
   -1.5466   -8.7630   34.5967 H   0  0  0  0  0  0  0  0  0  0  0  0
   -1.2995   -7.1645   35.1329 H   0  0  0  0  0  0  0  0  0  0  0  0
    1.7753   -7.6843   34.5634 H   0  0  0  0  0  0  0  0  0  0  0  0
    3.0008   -7.6803   35.7452 H   0  0  0  0  0  0  0  0  0  0  0  0
    1.2021   -7.7996   36.1692 H   0  0  0  0  0  0  0  0  0  0  0  0
    2.5629   -4.7852   37.0258 H   0  0  0  0  0  0  0  0  0  0  0  0
    3.4160   -6.2350   36.9330 H   0  0  0  0  0  0  0  0  0  0  0  0
    0.2383   -4.4853   37.9347 H   0  0  0  0  0  0  0  0  0  0  0  0
   -1.1303   -5.0919   39.8907 H   0  0  0  0  0  0  0  0  0  0  0  0
   -0.6586   -7.1733   41.1523 H   0  0  0  0  0  0  0  0  0  0  0  0
    1.1801   -8.6713   40.4278 H   0  0  0  0  0  0  0  0  0  0  0  0
    2.5741   -8.0784   38.4888 H   0  0  0  0  0  0  0  0  0  0  0  0
    0.5728   -2.8263   35.0747 H   0  0  0  0  0  0  0  0  0  0  0  0
    3.4119   -2.4825   37.4108 H   0  0  0  0  0  0  0  0  0  0  0  0
    2.2284   -1.6655   38.4410 H   0  0  0  0  0  0  0  0  0  0  0  0
    3.5325   -0.7150   37.7219 H   0  0  0  0  0  0  0  0  0  0  0  0
  1  2  1  0
  2  3  1  0
  3  4  2  0
  4  5  1  0
  5  6  2  0
  6  7  1  0
  7  8  1  0
  8  9  2  0
  9 10  1  0
 10 11  2  0
 11 12  1  0
 12 13  2  0
 13 14  1  0
 13 15  1  0
 15 16  1  0
 16 17  1  0
 17 18  2  0
 17 19  1  0
 19 20  1  0
 19 21  1  0
 21 22  1  0
 22 23  2  0
 23 24  1  0
 24 25  2  0
 25 26  1  0
 26 27  2  0
  6 28  1  0
 28 29  2  0
 29 30  1  0
 30 31  1  0
 29  3  1  0
 16  7  2  0
 27 22  1  0
 15 10  1  0
  1 32  1  0
  1 33  1  0
  1 34  1  0
  4 35  1  0
  5 36  1  0
  8 37  1  0
  9 38  1  0
 14 39  1  0
 14 40  1  0
 20 41  1  0
 20 42  1  0
 20 43  1  0
 21 44  1  0
 21 45  1  0
 23 46  1  0
 24 47  1  0
 25 48  1  0
 26 49  1  0
 27 50  1  0
 28 51  1  0
 31 52  1  0
 31 53  1  0
 31 54  1  0
M  END
>  <Energy>  (1073) 
134.75280837379484

>  <compound_id>  (1073) 
3814

>  <target_id>  (1073) 
1

>  <reference_id>  (1073) 
133

>  <inspiration_ids>  (1073) 
[133, 164]

>  <energy_score>  (1073) 
21.775515950989302

>  <distance_score>  (1073) 
1.109241189373169

>  <path>  (1073) 
/opt/xchem-fragalysis-2/maxwin/BulkDock/SCRATCH/505734/C3814-P133/C3814-P133.minimised.mol

>  <scratch_subdir>  (1073) 
/opt/xchem-fragalysis-2/maxwin/BulkDock/SCRATCH/505734/C3814-P133

>  <fragmenstein_runtime>  (1073) 
3.1155951023101807

>  <fragmenstein_outcome>  (1073) 
too moved

>  <fragmenstein_mode>  (1073) 
expansion

>  <fragmenstein_error>  (1073) 


$$$$
C3814-P164
     RDKit          3D

 54 57  0  0  0  0  0  0  0  0999 V2000
    4.8288    0.1423   34.9789 C   0  0  0  0  0  0  0  0  0  0  0  0
    3.4105    0.1275   34.8257 O   0  0  0  0  0  0  0  0  0  0  0  0
    2.9010   -1.0791   34.4242 C   0  0  0  0  0  0  0  0  0  0  0  0
    1.9335   -1.0048   33.4243 C   0  0  0  0  0  0  0  0  0  0  0  0
    1.3370   -2.1669   32.9409 C   0  0  0  0  0  0  0  0  0  0  0  0
    1.7233   -3.4242   33.4283 C   0  0  0  0  0  0  0  0  0  0  0  0
    1.0824   -4.6296   32.8474 C   0  0  0  0  0  0  0  0  0  0  0  0
    1.1396   -4.8043   31.3845 C   0  0  0  0  0  0  0  0  0  0  0  0
    0.4727   -5.7716   30.7406 C   0  0  0  0  0  0  0  0  0  0  0  0
   -0.3117   -6.6824   31.4779 C   0  0  0  0  0  0  0  0  0  0  0  0
   -1.0326   -7.7149   31.1064 N   0  0  0  0  0  0  0  0  0  0  0  0
   -1.5606   -8.2715   32.2409 N   0  0  0  0  0  0  0  0  0  0  0  0
   -1.1905   -7.5495   33.2762 C   0  0  0  0  0  0  0  0  0  0  0  0
   -1.4950   -7.7751   34.5686 N   0  0  0  0  0  0  0  0  0  0  0  0
   -0.3580   -6.5252   32.8566 N   0  0  0  0  0  0  0  0  0  0  0  0
    0.3597   -5.5399   33.5613 C   0  0  0  0  0  0  0  0  0  0  0  0
    0.2526   -5.4984   35.0611 C   0  0  0  0  0  0  0  0  0  0  0  0
   -0.7238   -5.1247   35.5962 O   0  0  0  0  0  0  0  0  0  0  0  0
    1.5458   -6.0305   35.6420 N   0  0  0  0  0  0  0  0  0  0  0  0
    1.4941   -7.5152   35.8080 C   0  0  0  0  0  0  0  0  0  0  0  0
    2.0094   -6.1452   37.0858 C   0  0  0  0  0  0  0  0  0  0  0  0
    1.0986   -6.4830   38.2548 C   0  0  0  0  0  0  0  0  0  0  0  0
    0.1551   -5.5613   38.7248 C   0  0  0  0  0  0  0  0  0  0  0  0
   -0.5712   -5.8282   39.8861 C   0  0  0  0  0  0  0  0  0  0  0  0
   -0.3823   -7.0263   40.5741 C   0  0  0  0  0  0  0  0  0  0  0  0
    0.5198   -7.9693   40.0932 C   0  0  0  0  0  0  0  0  0  0  0  0
    1.2654   -7.6944   38.9484 C   0  0  0  0  0  0  0  0  0  0  0  0
    2.7160   -3.4857   34.4125 C   0  0  0  0  0  0  0  0  0  0  0  0
    3.2588   -2.3208   34.9636 C   0  0  0  0  0  0  0  0  0  0  0  0
    4.0718   -2.3089   36.0634 O   0  0  0  0  0  0  0  0  0  0  0  0
    4.8140   -3.4829   36.3455 C   0  0  0  0  0  0  0  0  0  0  0  0
    5.1001   -0.0651   36.0179 H   0  0  0  0  0  0  0  0  0  0  0  0
    5.1737    1.1552   34.7480 H   0  0  0  0  0  0  0  0  0  0  0  0
    5.3394   -0.5438   34.2934 H   0  0  0  0  0  0  0  0  0  0  0  0
    1.6318   -0.0357   33.0345 H   0  0  0  0  0  0  0  0  0  0  0  0
    0.5614   -2.0748   32.1826 H   0  0  0  0  0  0  0  0  0  0  0  0
    1.7413   -4.0994   30.8140 H   0  0  0  0  0  0  0  0  0  0  0  0
    0.5206   -5.8565   29.6659 H   0  0  0  0  0  0  0  0  0  0  0  0
   -1.6931   -6.9907   35.1948 H   0  0  0  0  0  0  0  0  0  0  0  0
   -2.0532   -8.6132   34.7504 H   0  0  0  0  0  0  0  0  0  0  0  0
    0.5934   -7.8793   36.3184 H   0  0  0  0  0  0  0  0  0  0  0  0
    1.3467   -7.8817   34.7835 H   0  0  0  0  0  0  0  0  0  0  0  0
    2.4298   -8.0318   36.0745 H   0  0  0  0  0  0  0  0  0  0  0  0
    2.2347   -5.0859   37.2878 H   0  0  0  0  0  0  0  0  0  0  0  0
    3.0236   -6.5728   37.1878 H   0  0  0  0  0  0  0  0  0  0  0  0
   -0.0071   -4.6197   38.2026 H   0  0  0  0  0  0  0  0  0  0  0  0
   -1.3020   -5.1060   40.2446 H   0  0  0  0  0  0  0  0  0  0  0  0
   -0.9607   -7.2338   41.4708 H   0  0  0  0  0  0  0  0  0  0  0  0
    0.6461   -8.9190   40.6098 H   0  0  0  0  0  0  0  0  0  0  0  0
    1.9869   -8.4372   38.6168 H   0  0  0  0  0  0  0  0  0  0  0  0
    3.0525   -4.4505   34.7634 H   0  0  0  0  0  0  0  0  0  0  0  0
    4.1835   -4.2491   36.7966 H   0  0  0  0  0  0  0  0  0  0  0  0
    5.5873   -3.2223   37.0744 H   0  0  0  0  0  0  0  0  0  0  0  0
    5.3189   -3.8672   35.4524 H   0  0  0  0  0  0  0  0  0  0  0  0
  1  2  1  0
  2  3  1  0
  3  4  2  0
  4  5  1  0
  5  6  2  0
  6  7  1  0
  7  8  1  0
  8  9  2  0
  9 10  1  0
 10 11  2  0
 11 12  1  0
 12 13  2  0
 13 14  1  0
 13 15  1  0
 15 16  1  0
 16 17  1  0
 17 18  2  0
 17 19  1  0
 19 20  1  0
 19 21  1  0
 21 22  1  0
 22 23  2  0
 23 24  1  0
 24 25  2  0
 25 26  1  0
 26 27  2  0
  6 28  1  0
 28 29  2  0
 29 30  1  0
 30 31  1  0
 29  3  1  0
 16  7  2  0
 27 22  1  0
 15 10  1  0
  1 32  1  0
  1 33  1  0
  1 34  1  0
  4 35  1  0
  5 36  1  0
  8 37  1  0
  9 38  1  0
 14 39  1  0
 14 40  1  0
 20 41  1  0
 20 42  1  0
 20 43  1  0
 21 44  1  0
 21 45  1  0
 23 46  1  0
 24 47  1  0
 25 48  1  0
 26 49  1  0
 27 50  1  0
 28 51  1  0
 31 52  1  0
 31 53  1  0
 31 54  1  0
M  END
>  <Energy>  (1074) 
152.20188276883491

>  <compound_id>  (1074) 
3814

>  <target_id>  (1074) 
1

>  <reference_id>  (1074) 
164

>  <inspiration_ids>  (1074) 
[133, 164]

>  <energy_score>  (1074) 
41.22079490082558

>  <distance_score>  (1074) 
0.7203234647798203

>  <path>  (1074) 
/opt/xchem-fragalysis-2/maxwin/BulkDock/SCRATCH/505734/C3814-P164/C3814-P164.minimised.mol

>  <scratch_subdir>  (1074) 
/opt/xchem-fragalysis-2/maxwin/BulkDock/SCRATCH/505734/C3814-P164

>  <fragmenstein_runtime>  (1074) 
2.029798984527588

>  <fragmenstein_outcome>  (1074) 
too contorted

>  <fragmenstein_mode>  (1074) 
expansion

>  <fragmenstein_error>  (1074) 


$$$$
C3873-P133
     RDKit          3D

 56 60  0  0  0  0  0  0  0  0999 V2000
    2.7529   -2.3045   32.6486 C   0  0  0  0  0  0  0  0  0  0  0  0
    2.6669   -3.3263   33.7602 N   0  0  0  0  0  0  0  0  0  0  0  0
    3.5614   -2.3311   34.4488 C   0  0  0  0  0  0  0  0  0  0  0  0
    2.9450   -1.1642   35.1874 C   0  0  0  0  0  0  0  0  0  0  0  0
    3.7277   -0.0243   35.4315 C   0  0  0  0  0  0  0  0  0  0  0  0
    3.2089    1.0473   36.1525 C   0  0  0  0  0  0  0  0  0  0  0  0
    1.9058    0.9858   36.6384 C   0  0  0  0  0  0  0  0  0  0  0  0
    1.1221   -0.1416   36.4017 C   0  0  0  0  0  0  0  0  0  0  0  0
    1.6417   -1.2190   35.6880 C   0  0  0  0  0  0  0  0  0  0  0  0
    2.9411   -4.6201   33.2571 C   0  0  0  0  0  0  0  0  0  0  0  0
    3.9800   -5.2225   33.1691 O   0  0  0  0  0  0  0  0  0  0  0  0
    1.7422   -5.3112   32.6665 C   0  0  0  0  0  0  0  0  0  0  0  0
    1.7728   -5.1893   31.1977 C   0  0  0  0  0  0  0  0  0  0  0  0
    0.9142   -5.8102   30.3898 C   0  0  0  0  0  0  0  0  0  0  0  0
   -0.0464   -6.6641   30.9507 C   0  0  0  0  0  0  0  0  0  0  0  0
   -0.9176   -7.4510   30.3647 N   0  0  0  0  0  0  0  0  0  0  0  0
   -1.6499   -8.0446   31.3380 N   0  0  0  0  0  0  0  0  0  0  0  0
   -1.1968   -7.6165   32.4950 C   0  0  0  0  0  0  0  0  0  0  0  0
   -0.1290   -6.7588   32.3438 N   0  0  0  0  0  0  0  0  0  0  0  0
    0.7809   -6.0927   33.2493 C   0  0  0  0  0  0  0  0  0  0  0  0
    0.6498   -6.1665   34.7198 N   0  0  0  0  0  0  0  0  0  0  0  0
   -0.4541   -6.9688   35.3459 C   0  0  0  0  0  0  0  0  0  0  0  0
   -0.2149   -7.1318   36.8479 C   0  0  0  0  0  0  0  0  0  0  0  0
    1.0717   -6.4417   37.2414 C   0  0  0  0  0  0  0  0  0  0  0  0
    0.8559   -5.0322   37.7807 C   0  0  0  0  0  0  0  0  0  0  0  0
    1.7516   -4.5228   38.7339 C   0  0  0  0  0  0  0  0  0  0  0  0
    1.5269   -3.2845   39.3402 C   0  0  0  0  0  0  0  0  0  0  0  0
    0.4002   -2.5370   39.0129 C   0  0  0  0  0  0  0  0  0  0  0  0
   -0.4868   -3.0107   38.0545 C   0  0  0  0  0  0  0  0  0  0  0  0
   -0.2517   -4.2369   37.4305 C   0  0  0  0  0  0  0  0  0  0  0  0
    2.0274   -6.4598   35.7316 S   0  0  0  0  0  0  0  0  0  0  0  0
    2.9703   -5.3752   35.7769 O   0  0  0  0  0  0  0  0  0  0  0  0
    2.4444   -7.8230   35.4488 O   0  0  0  0  0  0  0  0  0  0  0  0
    2.4229   -1.2800   32.8679 H   0  0  0  0  0  0  0  0  0  0  0  0
    3.7041   -2.3508   32.0951 H   0  0  0  0  0  0  0  0  0  0  0  0
    2.0053   -2.6155   31.9071 H   0  0  0  0  0  0  0  0  0  0  0  0
    4.5001   -2.0870   33.9175 H   0  0  0  0  0  0  0  0  0  0  0  0
    3.9702   -2.9437   35.2695 H   0  0  0  0  0  0  0  0  0  0  0  0
    4.7525    0.0290   35.0709 H   0  0  0  0  0  0  0  0  0  0  0  0
    3.8196    1.9258   36.3418 H   0  0  0  0  0  0  0  0  0  0  0  0
    1.4974    1.8197   37.2032 H   0  0  0  0  0  0  0  0  0  0  0  0
    0.1060   -0.1852   36.7833 H   0  0  0  0  0  0  0  0  0  0  0  0
    1.0316   -2.1056   35.5320 H   0  0  0  0  0  0  0  0  0  0  0  0
    2.5508   -4.5699   30.7560 H   0  0  0  0  0  0  0  0  0  0  0  0
    0.9689   -5.6876   29.3174 H   0  0  0  0  0  0  0  0  0  0  0  0
   -1.6374   -7.9354   33.4214 H   0  0  0  0  0  0  0  0  0  0  0  0
   -1.4184   -6.4850   35.1672 H   0  0  0  0  0  0  0  0  0  0  0  0
   -0.4433   -7.9816   34.9415 H   0  0  0  0  0  0  0  0  0  0  0  0
   -0.1277   -8.2019   37.0675 H   0  0  0  0  0  0  0  0  0  0  0  0
   -1.0654   -6.7695   37.4243 H   0  0  0  0  0  0  0  0  0  0  0  0
    1.6066   -7.0418   37.9862 H   0  0  0  0  0  0  0  0  0  0  0  0
    2.6330   -5.0921   39.0234 H   0  0  0  0  0  0  0  0  0  0  0  0
    2.2323   -2.9067   40.0759 H   0  0  0  0  0  0  0  0  0  0  0  0
    0.2260   -1.5782   39.4932 H   0  0  0  0  0  0  0  0  0  0  0  0
   -1.3612   -2.4242   37.7851 H   0  0  0  0  0  0  0  0  0  0  0  0
   -0.9718   -4.5557   36.6816 H   0  0  0  0  0  0  0  0  0  0  0  0
  1  2  1  0
  2  3  1  0
  3  4  1  0
  4  5  2  0
  5  6  1  0
  6  7  2  0
  7  8  1  0
  8  9  2  0
  2 10  1  0
 10 11  2  0
 10 12  1  0
 12 13  1  0
 13 14  2  0
 14 15  1  0
 15 16  2  0
 16 17  1  0
 17 18  2  0
 18 19  1  0
 19 20  1  0
 20 21  1  0
 21 22  1  0
 22 23  1  0
 23 24  1  0
 24 25  1  0
 25 26  2  0
 26 27  1  0
 27 28  2  0
 28 29  1  0
 29 30  2  0
 24 31  1  0
 31 32  2  0
 31 33  2  0
  9  4  1  0
 20 12  2  0
 31 21  1  0
 19 15  1  0
 30 25  1  0
  1 34  1  0
  1 35  1  0
  1 36  1  0
  3 37  1  0
  3 38  1  0
  5 39  1  0
  6 40  1  0
  7 41  1  0
  8 42  1  0
  9 43  1  0
 13 44  1  0
 14 45  1  0
 18 46  1  0
 22 47  1  0
 22 48  1  0
 23 49  1  0
 23 50  1  0
 24 51  1  0
 26 52  1  0
 27 53  1  0
 28 54  1  0
 29 55  1  0
 30 56  1  0
M  END
>  <Energy>  (1075) 
173.57916285594021

>  <compound_id>  (1075) 
3873

>  <target_id>  (1075) 
1

>  <reference_id>  (1075) 
133

>  <inspiration_ids>  (1075) 
[133, 168]

>  <energy_score>  (1075) 
51.41242381679177

>  <distance_score>  (1075) 
1.9244099016361609

>  <path>  (1075) 
/opt/xchem-fragalysis-2/maxwin/BulkDock/SCRATCH/505734/C3873-P133/C3873-P133.minimised.mol

>  <scratch_subdir>  (1075) 
/opt/xchem-fragalysis-2/maxwin/BulkDock/SCRATCH/505734/C3873-P133

>  <fragmenstein_runtime>  (1075) 
10.289568424224854

>  <fragmenstein_outcome>  (1075) 
too moved

>  <fragmenstein_mode>  (1075) 
expansion

>  <fragmenstein_error>  (1075) 


$$$$
C3873-P168
     RDKit          3D

 56 60  0  0  0  0  0  0  0  0999 V2000
   -0.1028   -2.1481   33.4861 C   0  0  0  0  0  0  0  0  0  0  0  0
    1.0279   -2.9902   34.0069 N   0  0  0  0  0  0  0  0  0  0  0  0
    1.3374   -1.7073   34.7725 C   0  0  0  0  0  0  0  0  0  0  0  0
    2.7747   -1.7186   35.2960 C   0  0  0  0  0  0  0  0  0  0  0  0
    3.8449   -1.3908   34.4480 C   0  0  0  0  0  0  0  0  0  0  0  0
    5.1596   -1.3910   34.9184 C   0  0  0  0  0  0  0  0  0  0  0  0
    5.4236   -1.7154   36.2461 C   0  0  0  0  0  0  0  0  0  0  0  0
    4.3727   -2.0275   37.1026 C   0  0  0  0  0  0  0  0  0  0  0  0
    3.0598   -2.0222   36.6289 C   0  0  0  0  0  0  0  0  0  0  0  0
    1.7071   -3.6122   32.9349 C   0  0  0  0  0  0  0  0  0  0  0  0
    2.6563   -3.2437   32.2892 O   0  0  0  0  0  0  0  0  0  0  0  0
    1.0526   -4.9222   32.4618 C   0  0  0  0  0  0  0  0  0  0  0  0
    1.1802   -5.0266   30.9804 C   0  0  0  0  0  0  0  0  0  0  0  0
    0.5879   -5.9642   30.2380 C   0  0  0  0  0  0  0  0  0  0  0  0
   -0.2260   -6.9060   30.8783 C   0  0  0  0  0  0  0  0  0  0  0  0
   -0.9650   -7.8640   30.3730 N   0  0  0  0  0  0  0  0  0  0  0  0
   -1.6366   -8.4414   31.3985 N   0  0  0  0  0  0  0  0  0  0  0  0
   -1.2962   -7.8159   32.5009 C   0  0  0  0  0  0  0  0  0  0  0  0
   -0.3444   -6.8516   32.2679 N   0  0  0  0  0  0  0  0  0  0  0  0
    0.3526   -5.9121   33.0997 C   0  0  0  0  0  0  0  0  0  0  0  0
    0.2874   -5.9214   34.5703 N   0  0  0  0  0  0  0  0  0  0  0  0
   -0.6451   -6.8349   35.3042 C   0  0  0  0  0  0  0  0  0  0  0  0
   -0.2471   -6.9388   36.7790 C   0  0  0  0  0  0  0  0  0  0  0  0
    1.1141   -6.2895   36.9954 C   0  0  0  0  0  0  0  0  0  0  0  0
    0.9463   -4.9610   37.7108 C   0  0  0  0  0  0  0  0  0  0  0  0
   -0.0340   -4.0199   37.3434 C   0  0  0  0  0  0  0  0  0  0  0  0
   -0.3336   -2.9319   38.1674 C   0  0  0  0  0  0  0  0  0  0  0  0
    0.3586   -2.7517   39.3603 C   0  0  0  0  0  0  0  0  0  0  0  0
    1.3607   -3.6494   39.7231 C   0  0  0  0  0  0  0  0  0  0  0  0
    1.6526   -4.7454   38.9065 C   0  0  0  0  0  0  0  0  0  0  0  0
    1.8267   -6.2119   35.3552 S   0  0  0  0  0  0  0  0  0  0  0  0
    2.7388   -5.1145   35.1983 O   0  0  0  0  0  0  0  0  0  0  0  0
    2.2065   -7.5628   34.9626 O   0  0  0  0  0  0  0  0  0  0  0  0
   -0.7975   -1.7548   34.2445 H   0  0  0  0  0  0  0  0  0  0  0  0
    0.2084   -1.4122   32.7278 H   0  0  0  0  0  0  0  0  0  0  0  0
   -0.7373   -2.8397   32.9111 H   0  0  0  0  0  0  0  0  0  0  0  0
    0.6695   -1.6161   35.6413 H   0  0  0  0  0  0  0  0  0  0  0  0
    1.3286   -0.7693   34.1880 H   0  0  0  0  0  0  0  0  0  0  0  0
    3.6621   -1.1521   33.4025 H   0  0  0  0  0  0  0  0  0  0  0  0
    5.9757   -1.1521   34.2422 H   0  0  0  0  0  0  0  0  0  0  0  0
    6.4465   -1.7259   36.6109 H   0  0  0  0  0  0  0  0  0  0  0  0
    4.5715   -2.2799   38.1402 H   0  0  0  0  0  0  0  0  0  0  0  0
    2.2602   -2.2593   37.3157 H   0  0  0  0  0  0  0  0  0  0  0  0
    1.7995   -4.2901   30.4687 H   0  0  0  0  0  0  0  0  0  0  0  0
    0.7035   -6.0001   29.1607 H   0  0  0  0  0  0  0  0  0  0  0  0
   -1.7609   -8.0376   33.4429 H   0  0  0  0  0  0  0  0  0  0  0  0
   -1.6756   -6.4906   35.2080 H   0  0  0  0  0  0  0  0  0  0  0  0
   -0.5467   -7.8513   34.9214 H   0  0  0  0  0  0  0  0  0  0  0  0
   -0.1807   -8.0006   37.0445 H   0  0  0  0  0  0  0  0  0  0  0  0
   -1.0265   -6.5244   37.4255 H   0  0  0  0  0  0  0  0  0  0  0  0
    1.7569   -6.9554   37.5831 H   0  0  0  0  0  0  0  0  0  0  0  0
   -0.6086   -4.1351   36.4268 H   0  0  0  0  0  0  0  0  0  0  0  0
   -1.1103   -2.2284   37.8795 H   0  0  0  0  0  0  0  0  0  0  0  0
    0.1262   -1.9079   40.0050 H   0  0  0  0  0  0  0  0  0  0  0  0
    1.9055   -3.5064   40.6534 H   0  0  0  0  0  0  0  0  0  0  0  0
    2.4121   -5.4511   39.2391 H   0  0  0  0  0  0  0  0  0  0  0  0
  1  2  1  0
  2  3  1  0
  3  4  1  0
  4  5  2  0
  5  6  1  0
  6  7  2  0
  7  8  1  0
  8  9  2  0
  2 10  1  0
 10 11  2  0
 10 12  1  0
 12 13  1  0
 13 14  2  0
 14 15  1  0
 15 16  2  0
 16 17  1  0
 17 18  2  0
 18 19  1  0
 19 20  1  0
 20 21  1  0
 21 22  1  0
 22 23  1  0
 23 24  1  0
 24 25  1  0
 25 26  2  0
 26 27  1  0
 27 28  2  0
 28 29  1  0
 29 30  2  0
 24 31  1  0
 31 32  2  0
 31 33  2  0
  9  4  1  0
 20 12  2  0
 31 21  1  0
 19 15  1  0
 30 25  1  0
  1 34  1  0
  1 35  1  0
  1 36  1  0
  3 37  1  0
  3 38  1  0
  5 39  1  0
  6 40  1  0
  7 41  1  0
  8 42  1  0
  9 43  1  0
 13 44  1  0
 14 45  1  0
 18 46  1  0
 22 47  1  0
 22 48  1  0
 23 49  1  0
 23 50  1  0
 24 51  1  0
 26 52  1  0
 27 53  1  0
 28 54  1  0
 29 55  1  0
 30 56  1  0
M  END
>  <Energy>  (1076) 
169.76034488892594

>  <compound_id>  (1076) 
3873

>  <target_id>  (1076) 
1

>  <reference_id>  (1076) 
168

>  <inspiration_ids>  (1076) 
[133, 168]

>  <energy_score>  (1076) 
47.59360584977492

>  <distance_score>  (1076) 
1.5157264684809737

>  <path>  (1076) 
/opt/xchem-fragalysis-2/maxwin/BulkDock/SCRATCH/505734/C3873-P168/C3873-P168.minimised.mol

>  <scratch_subdir>  (1076) 
/opt/xchem-fragalysis-2/maxwin/BulkDock/SCRATCH/505734/C3873-P168

>  <fragmenstein_runtime>  (1076) 
10.179462194442749

>  <fragmenstein_outcome>  (1076) 
too moved

>  <fragmenstein_mode>  (1076) 
expansion

>  <fragmenstein_error>  (1076) 


$$$$
C3873-P133
     RDKit          2D

  0  0  0  0  0  0  0  0  0  0999 V2000
M  END
>  <compound_id>  (1077) 
3873

>  <target_id>  (1077) 
1

>  <reference_id>  (1077) 
133

>  <inspiration_ids>  (1077) 
[133, 175]

>  <energy_score>  (1077) 
nan

>  <distance_score>  (1077) 
nan

>  <path>  (1077) 
/opt/xchem-fragalysis-2/maxwin/BulkDock/SCRATCH/505734/C3873-P133/C3873-P133.minimised.mol

>  <scratch_subdir>  (1077) 
/opt/xchem-fragalysis-2/maxwin/BulkDock/SCRATCH/505734/C3873-P133

>  <fragmenstein_runtime>  (1077) 
1.1236615180969238

>  <fragmenstein_outcome>  (1077) 
too distant

>  <fragmenstein_mode>  (1077) 
expansion

>  <fragmenstein_error>  (1077) 
DistanceError: hit1

$$$$
C3759-P133
     RDKit          3D

 54 58  0  0  0  0  0  0  0  0999 V2000
    6.1233   -2.8884   34.3819 C   0  0  0  0  0  0  0  0  0  0  0  0
    4.7821   -3.2951   33.8930 N   0  0  0  0  0  0  0  0  0  0  0  0
    4.4324   -1.8573   34.3221 C   0  0  0  0  0  0  0  0  0  0  0  0
    3.0480   -1.8451   34.9763 C   0  0  0  0  0  0  0  0  0  0  0  0
    2.7094   -2.7911   35.9600 C   0  0  0  0  0  0  0  0  0  0  0  0
    1.4646   -2.7504   36.5873 C   0  0  0  0  0  0  0  0  0  0  0  0
    0.5587   -1.7446   36.2644 C   0  0  0  0  0  0  0  0  0  0  0  0
    0.9033   -0.7737   35.3263 C   0  0  0  0  0  0  0  0  0  0  0  0
    2.1405   -0.8216   34.6826 C   0  0  0  0  0  0  0  0  0  0  0  0
    4.3006   -3.5476   32.5235 C   0  0  0  0  0  0  0  0  0  0  0  0
    4.8419   -3.4007   31.4895 O   0  0  0  0  0  0  0  0  0  0  0  0
    2.9843   -4.1278   32.8368 N   0  0  0  0  0  0  0  0  0  0  0  0
    2.0607   -4.7408   32.0315 C   0  0  0  0  0  0  0  0  0  0  0  0
    2.3820   -5.0460   30.6435 C   0  0  0  0  0  0  0  0  0  0  0  0
    1.6118   -5.8572   29.8968 C   0  0  0  0  0  0  0  0  0  0  0  0
    0.4844   -6.4867   30.4832 C   0  0  0  0  0  0  0  0  0  0  0  0
   -0.3200   -7.4492   30.0851 N   0  0  0  0  0  0  0  0  0  0  0  0
   -1.2455   -7.6625   31.0819 N   0  0  0  0  0  0  0  0  0  0  0  0
   -0.9831   -6.8159   32.0543 C   0  0  0  0  0  0  0  0  0  0  0  0
    0.1129   -6.0559   31.7403 N   0  0  0  0  0  0  0  0  0  0  0  0
    0.8344   -5.1016   32.4920 C   0  0  0  0  0  0  0  0  0  0  0  0
    0.1539   -4.3978   33.5088 N   0  0  0  0  0  0  0  0  0  0  0  0
   -0.7712   -3.5320   32.9672 C   0  0  0  0  0  0  0  0  0  0  0  0
   -1.9085   -3.8059   32.3686 N   0  0  0  0  0  0  0  0  0  0  0  0
   -2.1858   -2.7987   31.4809 N   0  0  0  0  0  0  0  0  0  0  0  0
   -1.1809   -1.9455   31.5073 C   0  0  0  0  0  0  0  0  0  0  0  0
   -0.8571   -0.9241   30.5186 C   0  0  0  0  0  0  0  0  0  0  0  0
   -0.1135    0.2186   30.8433 C   0  0  0  0  0  0  0  0  0  0  0  0
    0.2145    1.1536   29.8561 C   0  0  0  0  0  0  0  0  0  0  0  0
   -0.2072    0.9638   28.5420 C   0  0  0  0  0  0  0  0  0  0  0  0
   -0.9408   -0.1696   28.2081 C   0  0  0  0  0  0  0  0  0  0  0  0
   -1.2534   -1.1122   29.1877 C   0  0  0  0  0  0  0  0  0  0  0  0
   -0.3756   -2.2775   32.5705 N   0  0  0  0  0  0  0  0  0  0  0  0
    6.5899   -2.0611   33.8237 H   0  0  0  0  0  0  0  0  0  0  0  0
    6.1947   -2.8320   35.4781 H   0  0  0  0  0  0  0  0  0  0  0  0
    6.7603   -3.7458   34.1207 H   0  0  0  0  0  0  0  0  0  0  0  0
    5.0327   -1.3156   35.0783 H   0  0  0  0  0  0  0  0  0  0  0  0
    4.4002   -1.2377   33.4124 H   0  0  0  0  0  0  0  0  0  0  0  0
    3.4209   -3.5624   36.2524 H   0  0  0  0  0  0  0  0  0  0  0  0
    1.2061   -3.4899   37.3429 H   0  0  0  0  0  0  0  0  0  0  0  0
   -0.4086   -1.7047   36.7621 H   0  0  0  0  0  0  0  0  0  0  0  0
    0.2042    0.0312   35.1073 H   0  0  0  0  0  0  0  0  0  0  0  0
    2.3979   -0.0409   33.9686 H   0  0  0  0  0  0  0  0  0  0  0  0
    2.8716   -4.1713   33.8390 H   0  0  0  0  0  0  0  0  0  0  0  0
    3.2481   -4.5807   30.1833 H   0  0  0  0  0  0  0  0  0  0  0  0
    1.8700   -6.0710   28.8682 H   0  0  0  0  0  0  0  0  0  0  0  0
   -1.5151   -6.7238   32.9895 H   0  0  0  0  0  0  0  0  0  0  0  0
    0.8320   -3.8974   34.0802 H   0  0  0  0  0  0  0  0  0  0  0  0
    0.2079    0.4095   31.8623 H   0  0  0  0  0  0  0  0  0  0  0  0
    0.7799    2.0467   30.1119 H   0  0  0  0  0  0  0  0  0  0  0  0
    0.0254    1.7013   27.7781 H   0  0  0  0  0  0  0  0  0  0  0  0
   -1.2758   -0.3292   27.1850 H   0  0  0  0  0  0  0  0  0  0  0  0
   -1.8053   -2.0048   28.8913 H   0  0  0  0  0  0  0  0  0  0  0  0
    0.5322   -1.8835   32.7418 H   0  0  0  0  0  0  0  0  0  0  0  0
  1  2  1  0
  2  3  1  0
  3  4  1  0
  4  5  2  0
  5  6  1  0
  6  7  2  0
  7  8  1  0
  8  9  2  0
  2 10  1  0
 10 11  2  0
 10 12  1  0
 12 13  1  0
 13 14  1  0
 14 15  2  0
 15 16  1  0
 16 17  2  0
 17 18  1  0
 18 19  2  0
 19 20  1  0
 20 21  1  0
 21 22  1  0
 22 23  1  0
 23 24  2  0
 24 25  1  0
 25 26  2  0
 26 27  1  0
 27 28  2  0
 28 29  1  0
 29 30  2  0
 30 31  1  0
 31 32  2  0
 26 33  1  0
  9  4  1  0
 21 13  2  0
 33 23  1  0
 20 16  1  0
 32 27  1  0
  1 34  1  0
  1 35  1  0
  1 36  1  0
  3 37  1  0
  3 38  1  0
  5 39  1  0
  6 40  1  0
  7 41  1  0
  8 42  1  0
  9 43  1  0
 12 44  1  0
 14 45  1  0
 15 46  1  0
 19 47  1  0
 22 48  1  0
 28 49  1  0
 29 50  1  0
 30 51  1  0
 31 52  1  0
 32 53  1  0
 33 54  1  0
M  END
>  <Energy>  (1078) 
98.152903924865399

>  <compound_id>  (1078) 
3759

>  <target_id>  (1078) 
1

>  <reference_id>  (1078) 
133

>  <inspiration_ids>  (1078) 
[133, 186]

>  <energy_score>  (1078) 
33.7791050392716

>  <distance_score>  (1078) 
1.829993077763758

>  <path>  (1078) 
/opt/xchem-fragalysis-2/maxwin/BulkDock/SCRATCH/505734/C3759-P133/C3759-P133.minimised.mol

>  <scratch_subdir>  (1078) 
/opt/xchem-fragalysis-2/maxwin/BulkDock/SCRATCH/505734/C3759-P133

>  <fragmenstein_runtime>  (1078) 
12.188047885894775

>  <fragmenstein_outcome>  (1078) 
too moved

>  <fragmenstein_mode>  (1078) 
expansion

>  <fragmenstein_error>  (1078) 


$$$$
C3759-P186
     RDKit          3D

 54 58  0  0  0  0  0  0  0  0999 V2000
    6.0969   -2.9722   34.3600 C   0  0  0  0  0  0  0  0  0  0  0  0
    4.7552   -3.3773   33.8728 N   0  0  0  0  0  0  0  0  0  0  0  0
    4.4025   -1.9457   34.3211 C   0  0  0  0  0  0  0  0  0  0  0  0
    3.0487   -1.9513   35.0387 C   0  0  0  0  0  0  0  0  0  0  0  0
    2.7313   -2.9450   35.9811 C   0  0  0  0  0  0  0  0  0  0  0  0
    1.5212   -2.9087   36.6737 C   0  0  0  0  0  0  0  0  0  0  0  0
    0.6326   -1.8586   36.4629 C   0  0  0  0  0  0  0  0  0  0  0  0
    0.9594   -0.8410   35.5692 C   0  0  0  0  0  0  0  0  0  0  0  0
    2.1582   -0.8867   34.8558 C   0  0  0  0  0  0  0  0  0  0  0  0
    4.2681   -3.6144   32.5036 C   0  0  0  0  0  0  0  0  0  0  0  0
    4.8037   -3.4530   31.4690 O   0  0  0  0  0  0  0  0  0  0  0  0
    2.9555   -4.2028   32.8164 N   0  0  0  0  0  0  0  0  0  0  0  0
    2.0297   -4.8090   32.0079 C   0  0  0  0  0  0  0  0  0  0  0  0
    2.3304   -5.0539   30.6033 C   0  0  0  0  0  0  0  0  0  0  0  0
    1.5679   -5.8573   29.8408 C   0  0  0  0  0  0  0  0  0  0  0  0
    0.4676   -6.5368   30.4227 C   0  0  0  0  0  0  0  0  0  0  0  0
   -0.3219   -7.5035   30.0034 N   0  0  0  0  0  0  0  0  0  0  0  0
   -1.2277   -7.7718   31.0049 N   0  0  0  0  0  0  0  0  0  0  0  0
   -0.9652   -6.9572   32.0039 C   0  0  0  0  0  0  0  0  0  0  0  0
    0.1101   -6.1624   31.7018 N   0  0  0  0  0  0  0  0  0  0  0  0
    0.8233   -5.2205   32.4787 C   0  0  0  0  0  0  0  0  0  0  0  0
    0.1524   -4.5875   33.5464 N   0  0  0  0  0  0  0  0  0  0  0  0
   -0.8142   -3.7283   33.0721 C   0  0  0  0  0  0  0  0  0  0  0  0
   -1.8745   -4.0070   32.3449 N   0  0  0  0  0  0  0  0  0  0  0  0
   -2.1946   -2.9070   31.5984 N   0  0  0  0  0  0  0  0  0  0  0  0
   -1.2702   -1.9956   31.8218 C   0  0  0  0  0  0  0  0  0  0  0  0
   -0.8955   -0.8966   30.9469 C   0  0  0  0  0  0  0  0  0  0  0  0
   -0.3191    0.2848   31.4291 C   0  0  0  0  0  0  0  0  0  0  0  0
    0.1494    1.2524   30.5360 C   0  0  0  0  0  0  0  0  0  0  0  0
    0.0455    1.0463   29.1621 C   0  0  0  0  0  0  0  0  0  0  0  0
   -0.5332   -0.1238   28.6798 C   0  0  0  0  0  0  0  0  0  0  0  0
   -1.0133   -1.0841   29.5640 C   0  0  0  0  0  0  0  0  0  0  0  0
   -0.5292   -2.3954   32.9098 N   0  0  0  0  0  0  0  0  0  0  0  0
    6.5609   -2.1438   33.8010 H   0  0  0  0  0  0  0  0  0  0  0  0
    6.1721   -2.9186   35.4562 H   0  0  0  0  0  0  0  0  0  0  0  0
    6.7333   -3.8288   34.0946 H   0  0  0  0  0  0  0  0  0  0  0  0
    5.0300   -1.3849   35.0406 H   0  0  0  0  0  0  0  0  0  0  0  0
    4.3152   -1.3301   33.4123 H   0  0  0  0  0  0  0  0  0  0  0  0
    3.4351   -3.7485   36.1951 H   0  0  0  0  0  0  0  0  0  0  0  0
    1.2817   -3.6838   37.3992 H   0  0  0  0  0  0  0  0  0  0  0  0
   -0.3028   -1.8192   37.0181 H   0  0  0  0  0  0  0  0  0  0  0  0
    0.2794   -0.0012   35.4399 H   0  0  0  0  0  0  0  0  0  0  0  0
    2.4034   -0.0716   34.1763 H   0  0  0  0  0  0  0  0  0  0  0  0
    2.8482   -4.2589   33.8174 H   0  0  0  0  0  0  0  0  0  0  0  0
    3.1724   -4.5463   30.1424 H   0  0  0  0  0  0  0  0  0  0  0  0
    1.8123   -6.0193   28.7992 H   0  0  0  0  0  0  0  0  0  0  0  0
   -1.4852   -6.9094   32.9488 H   0  0  0  0  0  0  0  0  0  0  0  0
    0.8283   -4.1020   34.1319 H   0  0  0  0  0  0  0  0  0  0  0  0
   -0.2205    0.4649   32.4952 H   0  0  0  0  0  0  0  0  0  0  0  0
    0.6024    2.1694   30.9055 H   0  0  0  0  0  0  0  0  0  0  0  0
    0.4181    1.7924   28.4623 H   0  0  0  0  0  0  0  0  0  0  0  0
   -0.5949   -0.3074   27.6132 H   0  0  0  0  0  0  0  0  0  0  0  0
   -1.4445   -2.0027   29.1631 H   0  0  0  0  0  0  0  0  0  0  0  0
    0.3254   -1.9574   33.2022 H   0  0  0  0  0  0  0  0  0  0  0  0
  1  2  1  0
  2  3  1  0
  3  4  1  0
  4  5  2  0
  5  6  1  0
  6  7  2  0
  7  8  1  0
  8  9  2  0
  2 10  1  0
 10 11  2  0
 10 12  1  0
 12 13  1  0
 13 14  1  0
 14 15  2  0
 15 16  1  0
 16 17  2  0
 17 18  1  0
 18 19  2  0
 19 20  1  0
 20 21  1  0
 21 22  1  0
 22 23  1  0
 23 24  2  0
 24 25  1  0
 25 26  2  0
 26 27  1  0
 27 28  2  0
 28 29  1  0
 29 30  2  0
 30 31  1  0
 31 32  2  0
 26 33  1  0
  9  4  1  0
 21 13  2  0
 33 23  1  0
 20 16  1  0
 32 27  1  0
  1 34  1  0
  1 35  1  0
  1 36  1  0
  3 37  1  0
  3 38  1  0
  5 39  1  0
  6 40  1  0
  7 41  1  0
  8 42  1  0
  9 43  1  0
 12 44  1  0
 14 45  1  0
 15 46  1  0
 19 47  1  0
 22 48  1  0
 28 49  1  0
 29 50  1  0
 30 51  1  0
 31 52  1  0
 32 53  1  0
 33 54  1  0
M  END
>  <Energy>  (1079) 
99.364818686019447

>  <compound_id>  (1079) 
3759

>  <target_id>  (1079) 
1

>  <reference_id>  (1079) 
186

>  <inspiration_ids>  (1079) 
[133, 186]

>  <energy_score>  (1079) 
34.99101980042337

>  <distance_score>  (1079) 
1.8441880741042445

>  <path>  (1079) 
/opt/xchem-fragalysis-2/maxwin/BulkDock/SCRATCH/505734/C3759-P186/C3759-P186.minimised.mol

>  <scratch_subdir>  (1079) 
/opt/xchem-fragalysis-2/maxwin/BulkDock/SCRATCH/505734/C3759-P186

>  <fragmenstein_runtime>  (1079) 
12.449494123458862

>  <fragmenstein_outcome>  (1079) 
too moved

>  <fragmenstein_mode>  (1079) 
expansion

>  <fragmenstein_error>  (1079) 


$$$$
C3760-P133
     RDKit          3D

 61 65  0  0  0  0  0  0  0  0999 V2000
   -3.1962   -0.6193   33.2205 C   0  0  0  0  0  0  0  0  0  0  0  0
   -2.5120   -1.7644   33.8553 N   0  0  0  0  0  0  0  0  0  0  0  0
   -1.8381   -1.8465   32.4743 C   0  0  0  0  0  0  0  0  0  0  0  0
   -1.0331   -0.7963   31.7203 C   0  0  0  0  0  0  0  0  0  0  0  0
   -0.0528   -0.0056   32.3239 C   0  0  0  0  0  0  0  0  0  0  0  0
    0.6821    0.9097   31.5646 C   0  0  0  0  0  0  0  0  0  0  0  0
    0.4643    1.0319   30.1926 C   0  0  0  0  0  0  0  0  0  0  0  0
   -0.4846    0.2307   29.5691 C   0  0  0  0  0  0  0  0  0  0  0  0
   -1.2201   -0.6807   30.3263 C   0  0  0  0  0  0  0  0  0  0  0  0
   -1.4962   -1.7998   34.9191 C   0  0  0  0  0  0  0  0  0  0  0  0
   -0.9234   -0.9211   35.4542 O   0  0  0  0  0  0  0  0  0  0  0  0
   -1.4825   -3.2421   35.1790 N   0  0  0  0  0  0  0  0  0  0  0  0
   -0.8781   -3.9680   36.1668 C   0  0  0  0  0  0  0  0  0  0  0  0
   -0.9177   -3.4567   37.5321 C   0  0  0  0  0  0  0  0  0  0  0  0
   -0.5842   -4.2324   38.5818 C   0  0  0  0  0  0  0  0  0  0  0  0
   -0.1394   -5.5632   38.3597 C   0  0  0  0  0  0  0  0  0  0  0  0
    0.2758   -6.5044   39.1779 N   0  0  0  0  0  0  0  0  0  0  0  0
    0.6760   -7.5746   38.4127 N   0  0  0  0  0  0  0  0  0  0  0  0
    0.4768   -7.2655   37.1506 C   0  0  0  0  0  0  0  0  0  0  0  0
   -0.0484   -6.0087   37.0497 N   0  0  0  0  0  0  0  0  0  0  0  0
   -0.4341   -5.2339   35.9566 C   0  0  0  0  0  0  0  0  0  0  0  0
   -0.0872   -5.5088   34.5932 N   0  0  0  0  0  0  0  0  0  0  0  0
   -0.6380   -6.6008   33.7807 C   0  0  0  0  0  0  0  0  0  0  0  0
   -0.5946   -6.1679   32.2994 C   0  0  0  0  0  0  0  0  0  0  0  0
    0.7774   -5.6833   31.7761 C   0  0  0  0  0  0  0  0  0  0  0  0
    1.3761   -4.5806   32.6584 C   0  0  0  0  0  0  0  0  0  0  0  0
    2.6138   -3.8862   32.1368 C   0  0  0  0  0  0  0  0  0  0  0  0
    2.4300   -2.8086   31.2491 C   0  0  0  0  0  0  0  0  0  0  0  0
    3.5074   -2.0356   30.8187 C   0  0  0  0  0  0  0  0  0  0  0  0
    4.7921   -2.3359   31.2553 C   0  0  0  0  0  0  0  0  0  0  0  0
    4.9992   -3.4190   32.1044 C   0  0  0  0  0  0  0  0  0  0  0  0
    3.9212   -4.1955   32.5342 C   0  0  0  0  0  0  0  0  0  0  0  0
    1.5930   -5.2178   34.3152 S   0  0  0  0  0  0  0  0  0  0  0  0
    2.0545   -4.1730   35.2005 O   0  0  0  0  0  0  0  0  0  0  0  0
    2.2497   -6.5127   34.2665 O   0  0  0  0  0  0  0  0  0  0  0  0
   -3.8023   -0.8315   32.3328 H   0  0  0  0  0  0  0  0  0  0  0  0
   -2.6023    0.3013   33.1923 H   0  0  0  0  0  0  0  0  0  0  0  0
   -3.9592   -0.3568   33.9697 H   0  0  0  0  0  0  0  0  0  0  0  0
   -2.5620   -2.3325   31.7939 H   0  0  0  0  0  0  0  0  0  0  0  0
   -1.1077   -2.6548   32.6041 H   0  0  0  0  0  0  0  0  0  0  0  0
    0.1598   -0.0849   33.3878 H   0  0  0  0  0  0  0  0  0  0  0  0
    1.4357    1.5274   32.0492 H   0  0  0  0  0  0  0  0  0  0  0  0
    1.0384    1.7499   29.6120 H   0  0  0  0  0  0  0  0  0  0  0  0
   -0.6504    0.3099   28.4965 H   0  0  0  0  0  0  0  0  0  0  0  0
   -1.9332   -1.3125   29.8031 H   0  0  0  0  0  0  0  0  0  0  0  0
   -2.1635   -3.6970   34.5746 H   0  0  0  0  0  0  0  0  0  0  0  0
   -1.2405   -2.4323   37.6944 H   0  0  0  0  0  0  0  0  0  0  0  0
   -0.6252   -3.8600   39.5993 H   0  0  0  0  0  0  0  0  0  0  0  0
    0.6791   -7.9014   36.3038 H   0  0  0  0  0  0  0  0  0  0  0  0
   -0.0823   -7.5302   33.9342 H   0  0  0  0  0  0  0  0  0  0  0  0
   -1.6748   -6.7945   34.0720 H   0  0  0  0  0  0  0  0  0  0  0  0
   -1.3007   -5.3412   32.1633 H   0  0  0  0  0  0  0  0  0  0  0  0
   -0.9479   -6.9954   31.6734 H   0  0  0  0  0  0  0  0  0  0  0  0
    0.6503   -5.3180   30.7498 H   0  0  0  0  0  0  0  0  0  0  0  0
    1.4601   -6.5354   31.7220 H   0  0  0  0  0  0  0  0  0  0  0  0
    0.6322   -3.7882   32.7924 H   0  0  0  0  0  0  0  0  0  0  0  0
    1.4338   -2.5307   30.9092 H   0  0  0  0  0  0  0  0  0  0  0  0
    3.3382   -1.1901   30.1563 H   0  0  0  0  0  0  0  0  0  0  0  0
    5.6332   -1.7274   30.9337 H   0  0  0  0  0  0  0  0  0  0  0  0
    6.0047   -3.6532   32.4464 H   0  0  0  0  0  0  0  0  0  0  0  0
    4.1398   -5.0161   33.2138 H   0  0  0  0  0  0  0  0  0  0  0  0
  1  2  1  0
  2  3  1  0
  3  4  1  0
  4  5  2  0
  5  6  1  0
  6  7  2  0
  7  8  1  0
  8  9  2  0
  2 10  1  0
 10 11  2  0
 10 12  1  0
 12 13  1  0
 13 14  1  0
 14 15  2  0
 15 16  1  0
 16 17  2  0
 17 18  1  0
 18 19  2  0
 19 20  1  0
 20 21  1  0
 21 22  1  0
 22 23  1  0
 23 24  1  0
 24 25  1  0
 25 26  1  0
 26 27  1  0
 27 28  2  0
 28 29  1  0
 29 30  2  0
 30 31  1  0
 31 32  2  0
 26 33  1  0
 33 34  2  0
 33 35  2  0
  9  4  1  0
 21 13  2  0
 33 22  1  0
 20 16  1  0
 32 27  1  0
  1 36  1  0
  1 37  1  0
  1 38  1  0
  3 39  1  0
  3 40  1  0
  5 41  1  0
  6 42  1  0
  7 43  1  0
  8 44  1  0
  9 45  1  0
 12 46  1  0
 14 47  1  0
 15 48  1  0
 19 49  1  0
 23 50  1  0
 23 51  1  0
 24 52  1  0
 24 53  1  0
 25 54  1  0
 25 55  1  0
 26 56  1  0
 28 57  1  0
 29 58  1  0
 30 59  1  0
 31 60  1  0
 32 61  1  0
M  END
>  <Energy>  (1080) 
114.85876439347609

>  <compound_id>  (1080) 
3760

>  <target_id>  (1080) 
1

>  <reference_id>  (1080) 
133

>  <inspiration_ids>  (1080) 
[133, 188]

>  <energy_score>  (1080) 
51.68196790053781

>  <distance_score>  (1080) 
2.9758914277604234

>  <path>  (1080) 
/opt/xchem-fragalysis-2/maxwin/BulkDock/SCRATCH/505734/C3760-P133/C3760-P133.minimised.mol

>  <scratch_subdir>  (1080) 
/opt/xchem-fragalysis-2/maxwin/BulkDock/SCRATCH/505734/C3760-P133

>  <fragmenstein_runtime>  (1080) 
26.230952978134155

>  <fragmenstein_outcome>  (1080) 
too moved

>  <fragmenstein_mode>  (1080) 
expansion

>  <fragmenstein_error>  (1080) 


$$$$
C3760-P188
     RDKit          3D

 61 65  0  0  0  0  0  0  0  0999 V2000
   -3.2729   -0.5220   33.5633 C   0  0  0  0  0  0  0  0  0  0  0  0
   -2.4052   -1.6023   34.1023 N   0  0  0  0  0  0  0  0  0  0  0  0
   -1.3082   -0.7436   33.4640 C   0  0  0  0  0  0  0  0  0  0  0  0
   -1.1009   -0.7965   31.9461 C   0  0  0  0  0  0  0  0  0  0  0  0
   -0.4194    0.2609   31.3232 C   0  0  0  0  0  0  0  0  0  0  0  0
   -0.2182    0.2693   29.9414 C   0  0  0  0  0  0  0  0  0  0  0  0
   -0.6741   -0.7900   29.1640 C   0  0  0  0  0  0  0  0  0  0  0  0
   -1.3170   -1.8650   29.7704 C   0  0  0  0  0  0  0  0  0  0  0  0
   -1.5297   -1.8709   31.1526 C   0  0  0  0  0  0  0  0  0  0  0  0
   -2.0436   -1.9327   35.4912 C   0  0  0  0  0  0  0  0  0  0  0  0
   -2.2849   -1.3662   36.4941 O   0  0  0  0  0  0  0  0  0  0  0  0
   -1.3788   -3.2221   35.2626 N   0  0  0  0  0  0  0  0  0  0  0  0
   -0.9331   -4.1715   36.1465 C   0  0  0  0  0  0  0  0  0  0  0  0
   -1.1576   -4.0088   37.5813 C   0  0  0  0  0  0  0  0  0  0  0  0
   -0.6978   -4.8994   38.4801 C   0  0  0  0  0  0  0  0  0  0  0  0
    0.0496   -6.0180   38.0353 C   0  0  0  0  0  0  0  0  0  0  0  0
    0.6948   -6.9628   38.6816 N   0  0  0  0  0  0  0  0  0  0  0  0
    1.3214   -7.7518   37.7463 N   0  0  0  0  0  0  0  0  0  0  0  0
    1.0124   -7.2865   36.5571 C   0  0  0  0  0  0  0  0  0  0  0  0
    0.2222   -6.1798   36.6697 N   0  0  0  0  0  0  0  0  0  0  0  0
   -0.2812   -5.2856   35.7239 C   0  0  0  0  0  0  0  0  0  0  0  0
    0.0198   -5.3119   34.3195 N   0  0  0  0  0  0  0  0  0  0  0  0
   -0.4699   -6.3780   33.4264 C   0  0  0  0  0  0  0  0  0  0  0  0
   -0.5603   -5.8134   31.9986 C   0  0  0  0  0  0  0  0  0  0  0  0
    0.7325   -5.1645   31.4634 C   0  0  0  0  0  0  0  0  0  0  0  0
    1.2691   -4.0675   32.4019 C   0  0  0  0  0  0  0  0  0  0  0  0
    2.4660   -3.2564   31.9645 C   0  0  0  0  0  0  0  0  0  0  0  0
    3.3244   -3.6511   30.9352 C   0  0  0  0  0  0  0  0  0  0  0  0
    4.4235   -2.8608   30.5894 C   0  0  0  0  0  0  0  0  0  0  0  0
    4.6799   -1.6691   31.2642 C   0  0  0  0  0  0  0  0  0  0  0  0
    3.8318   -1.2553   32.2822 C   0  0  0  0  0  0  0  0  0  0  0  0
    2.7310   -2.0374   32.6211 C   0  0  0  0  0  0  0  0  0  0  0  0
    1.6405   -4.8209   33.9989 S   0  0  0  0  0  0  0  0  0  0  0  0
    2.0076   -3.8149   34.9708 O   0  0  0  0  0  0  0  0  0  0  0  0
    2.4259   -6.0269   33.8151 O   0  0  0  0  0  0  0  0  0  0  0  0
   -3.4116   -0.5019   32.4785 H   0  0  0  0  0  0  0  0  0  0  0  0
   -3.1543    0.4627   34.0399 H   0  0  0  0  0  0  0  0  0  0  0  0
   -4.2697   -0.8199   33.9238 H   0  0  0  0  0  0  0  0  0  0  0  0
   -0.3765   -1.1996   33.8378 H   0  0  0  0  0  0  0  0  0  0  0  0
   -1.2228    0.2731   33.8885 H   0  0  0  0  0  0  0  0  0  0  0  0
   -0.0417    1.0973   31.9080 H   0  0  0  0  0  0  0  0  0  0  0  0
    0.2932    1.1042   29.4680 H   0  0  0  0  0  0  0  0  0  0  0  0
   -0.5328   -0.7827   28.0844 H   0  0  0  0  0  0  0  0  0  0  0  0
   -1.6720   -2.6864   29.1503 H   0  0  0  0  0  0  0  0  0  0  0  0
   -2.0566   -2.7059   31.6042 H   0  0  0  0  0  0  0  0  0  0  0  0
   -1.4133   -3.4426   34.2785 H   0  0  0  0  0  0  0  0  0  0  0  0
   -1.7244   -3.1557   37.9390 H   0  0  0  0  0  0  0  0  0  0  0  0
   -0.8752   -4.7754   39.5430 H   0  0  0  0  0  0  0  0  0  0  0  0
    1.3431   -7.6936   35.6162 H   0  0  0  0  0  0  0  0  0  0  0  0
    0.1821   -7.2561   33.4608 H   0  0  0  0  0  0  0  0  0  0  0  0
   -1.4657   -6.7022   33.7475 H   0  0  0  0  0  0  0  0  0  0  0  0
   -1.3484   -5.0531   31.9761 H   0  0  0  0  0  0  0  0  0  0  0  0
   -0.8703   -6.6136   31.3169 H   0  0  0  0  0  0  0  0  0  0  0  0
    0.5250   -4.7376   30.4746 H   0  0  0  0  0  0  0  0  0  0  0  0
    1.4819   -5.9502   31.3176 H   0  0  0  0  0  0  0  0  0  0  0  0
    0.4586   -3.3552   32.5936 H   0  0  0  0  0  0  0  0  0  0  0  0
    3.1635   -4.5734   30.3854 H   0  0  0  0  0  0  0  0  0  0  0  0
    5.0895   -3.1782   29.7905 H   0  0  0  0  0  0  0  0  0  0  0  0
    5.5412   -1.0639   30.9935 H   0  0  0  0  0  0  0  0  0  0  0  0
    4.0269   -0.3278   32.8137 H   0  0  0  0  0  0  0  0  0  0  0  0
    2.0873   -1.6889   33.4276 H   0  0  0  0  0  0  0  0  0  0  0  0
  1  2  1  0
  2  3  1  0
  3  4  1  0
  4  5  2  0
  5  6  1  0
  6  7  2  0
  7  8  1  0
  8  9  2  0
  2 10  1  0
 10 11  2  0
 10 12  1  0
 12 13  1  0
 13 14  1  0
 14 15  2  0
 15 16  1  0
 16 17  2  0
 17 18  1  0
 18 19  2  0
 19 20  1  0
 20 21  1  0
 21 22  1  0
 22 23  1  0
 23 24  1  0
 24 25  1  0
 25 26  1  0
 26 27  1  0
 27 28  2  0
 28 29  1  0
 29 30  2  0
 30 31  1  0
 31 32  2  0
 26 33  1  0
 33 34  2  0
 33 35  2  0
  9  4  1  0
 21 13  2  0
 33 22  1  0
 20 16  1  0
 32 27  1  0
  1 36  1  0
  1 37  1  0
  1 38  1  0
  3 39  1  0
  3 40  1  0
  5 41  1  0
  6 42  1  0
  7 43  1  0
  8 44  1  0
  9 45  1  0
 12 46  1  0
 14 47  1  0
 15 48  1  0
 19 49  1  0
 23 50  1  0
 23 51  1  0
 24 52  1  0
 24 53  1  0
 25 54  1  0
 25 55  1  0
 26 56  1  0
 28 57  1  0
 29 58  1  0
 30 59  1  0
 31 60  1  0
 32 61  1  0
M  END
>  <Energy>  (1081) 
89.041306402399414

>  <compound_id>  (1081) 
3760

>  <target_id>  (1081) 
1

>  <reference_id>  (1081) 
188

>  <inspiration_ids>  (1081) 
[133, 188]

>  <energy_score>  (1081) 
25.86450990946011

>  <distance_score>  (1081) 
3.02854034772428

>  <path>  (1081) 
/opt/xchem-fragalysis-2/maxwin/BulkDock/SCRATCH/505734/C3760-P188/C3760-P188.minimised.mol

>  <scratch_subdir>  (1081) 
/opt/xchem-fragalysis-2/maxwin/BulkDock/SCRATCH/505734/C3760-P188

>  <fragmenstein_runtime>  (1081) 
29.37126088142395

>  <fragmenstein_outcome>  (1081) 
too moved

>  <fragmenstein_mode>  (1081) 
expansion

>  <fragmenstein_error>  (1081) 


$$$$
C2373-P133
     RDKit          3D

 47 50  0  0  0  0  0  0  0  0999 V2000
    2.7758   -2.1292   32.0537 C   0  0  0  0  0  0  0  0  0  0  0  0
    1.6983   -2.3667   33.0812 N   0  0  0  0  0  0  0  0  0  0  0  0
    2.3190   -1.1176   33.6447 C   0  0  0  0  0  0  0  0  0  0  0  0
    3.3093   -1.4021   34.7520 C   0  0  0  0  0  0  0  0  0  0  0  0
    4.4440   -0.6012   34.9076 C   0  0  0  0  0  0  0  0  0  0  0  0
    5.3538   -0.8780   35.9259 C   0  0  0  0  0  0  0  0  0  0  0  0
    5.1258   -1.9415   36.8045 C   0  0  0  0  0  0  0  0  0  0  0  0
    3.9841   -2.7235   36.6750 C   0  0  0  0  0  0  0  0  0  0  0  0
    3.0815   -2.4549   35.6530 C   0  0  0  0  0  0  0  0  0  0  0  0
    0.3702   -2.5871   32.4322 C   0  0  0  0  0  0  0  0  0  0  0  0
   -0.4671   -1.8216   32.1384 O   0  0  0  0  0  0  0  0  0  0  0  0
    0.1711   -4.0548   32.2363 C   0  0  0  0  0  0  0  0  0  0  0  0
    0.3479   -4.5042   30.8563 C   0  0  0  0  0  0  0  0  0  0  0  0
    0.1086   -5.7668   30.4884 C   0  0  0  0  0  0  0  0  0  0  0  0
   -0.4112   -6.6757   31.4280 C   0  0  0  0  0  0  0  0  0  0  0  0
   -0.8812   -7.8908   31.2834 N   0  0  0  0  0  0  0  0  0  0  0  0
   -1.2875   -8.3145   32.5168 N   0  0  0  0  0  0  0  0  0  0  0  0
   -1.0454   -7.3561   33.3850 C   0  0  0  0  0  0  0  0  0  0  0  0
   -0.5256   -6.2559   32.7483 N   0  0  0  0  0  0  0  0  0  0  0  0
   -0.2070   -4.9462   33.1933 C   0  0  0  0  0  0  0  0  0  0  0  0
   -0.3197   -4.6509   34.9175 S   0  0  0  0  0  0  0  0  0  0  0  0
   -1.0414   -2.9902   35.0634 C   0  0  0  0  0  0  0  0  0  0  0  0
   -1.7634   -2.6610   36.3510 C   0  0  0  0  0  0  0  0  0  0  0  0
   -2.7054   -1.6205   36.3215 C   0  0  0  0  0  0  0  0  0  0  0  0
   -3.3621   -1.2646   37.4879 C   0  0  0  0  0  0  0  0  0  0  0  0
   -3.1511   -1.8635   38.6751 N   0  0  0  0  0  0  0  0  0  0  0  0
   -2.2308   -2.8534   38.6949 C   0  0  0  0  0  0  0  0  0  0  0  0
   -1.5110   -3.2708   37.5821 C   0  0  0  0  0  0  0  0  0  0  0  0
    3.8179   -2.1252   32.4077 H   0  0  0  0  0  0  0  0  0  0  0  0
    2.7526   -3.0263   31.4179 H   0  0  0  0  0  0  0  0  0  0  0  0
    2.5294   -1.3254   31.3407 H   0  0  0  0  0  0  0  0  0  0  0  0
    1.4637   -0.6756   34.1843 H   0  0  0  0  0  0  0  0  0  0  0  0
    2.5679   -0.2595   32.9913 H   0  0  0  0  0  0  0  0  0  0  0  0
    4.6339    0.2338   34.2379 H   0  0  0  0  0  0  0  0  0  0  0  0
    6.2419   -0.2619   36.0444 H   0  0  0  0  0  0  0  0  0  0  0  0
    5.8368   -2.1470   37.6009 H   0  0  0  0  0  0  0  0  0  0  0  0
    3.7982   -3.5403   37.3670 H   0  0  0  0  0  0  0  0  0  0  0  0
    2.1946   -3.0750   35.5650 H   0  0  0  0  0  0  0  0  0  0  0  0
    0.6838   -3.7783   30.1190 H   0  0  0  0  0  0  0  0  0  0  0  0
    0.2519   -6.0884   29.4733 H   0  0  0  0  0  0  0  0  0  0  0  0
   -1.2532   -7.4072   34.4451 H   0  0  0  0  0  0  0  0  0  0  0  0
   -0.2358   -2.2576   34.9769 H   0  0  0  0  0  0  0  0  0  0  0  0
   -1.7373   -2.8414   34.2323 H   0  0  0  0  0  0  0  0  0  0  0  0
   -2.9306   -1.0966   35.3969 H   0  0  0  0  0  0  0  0  0  0  0  0
   -4.0971   -0.4655   37.4945 H   0  0  0  0  0  0  0  0  0  0  0  0
   -2.0855   -3.3292   39.6614 H   0  0  0  0  0  0  0  0  0  0  0  0
   -0.7854   -4.0685   37.6949 H   0  0  0  0  0  0  0  0  0  0  0  0
  1  2  1  0
  2  3  1  0
  3  4  1  0
  4  5  2  0
  5  6  1  0
  6  7  2  0
  7  8  1  0
  8  9  2  0
  2 10  1  0
 10 11  2  0
 10 12  1  0
 12 13  1  0
 13 14  2  0
 14 15  1  0
 15 16  2  0
 16 17  1  0
 17 18  2  0
 18 19  1  0
 19 20  1  0
 20 21  1  0
 21 22  1  0
 22 23  1  0
 23 24  2  0
 24 25  1  0
 25 26  2  0
 26 27  1  0
 27 28  2  0
  9  4  1  0
 20 12  2  0
 28 23  1  0
 19 15  1  0
  1 29  1  0
  1 30  1  0
  1 31  1  0
  3 32  1  0
  3 33  1  0
  5 34  1  0
  6 35  1  0
  7 36  1  0
  8 37  1  0
  9 38  1  0
 13 39  1  0
 14 40  1  0
 18 41  1  0
 22 42  1  0
 22 43  1  0
 24 44  1  0
 25 45  1  0
 27 46  1  0
 28 47  1  0
M  END
>  <Energy>  (1082) 
150.5718638025912

>  <compound_id>  (1082) 
2373

>  <target_id>  (1082) 
1

>  <reference_id>  (1082) 
133

>  <inspiration_ids>  (1082) 
[133, 195]

>  <energy_score>  (1082) 
58.68532687314098

>  <distance_score>  (1082) 
2.0548127296648877

>  <path>  (1082) 
/opt/xchem-fragalysis-2/maxwin/BulkDock/SCRATCH/505734/C2373-P133/C2373-P133.minimised.mol

>  <scratch_subdir>  (1082) 
/opt/xchem-fragalysis-2/maxwin/BulkDock/SCRATCH/505734/C2373-P133

>  <fragmenstein_runtime>  (1082) 
5.540272951126099

>  <fragmenstein_outcome>  (1082) 
too moved

>  <fragmenstein_mode>  (1082) 
expansion

>  <fragmenstein_error>  (1082) 


$$$$
C2373-P195
     RDKit          3D

 47 50  0  0  0  0  0  0  0  0999 V2000
   -0.0390   -1.5881   33.6763 C   0  0  0  0  0  0  0  0  0  0  0  0
    1.0180   -2.5604   34.1427 N   0  0  0  0  0  0  0  0  0  0  0  0
    1.3679   -1.4093   35.0469 C   0  0  0  0  0  0  0  0  0  0  0  0
    2.6363   -1.7987   35.8034 C   0  0  0  0  0  0  0  0  0  0  0  0
    3.8917   -1.3424   35.3724 C   0  0  0  0  0  0  0  0  0  0  0  0
    5.0520   -1.7252   36.0453 C   0  0  0  0  0  0  0  0  0  0  0  0
    4.9699   -2.5761   37.1463 C   0  0  0  0  0  0  0  0  0  0  0  0
    3.7297   -3.0467   37.5734 C   0  0  0  0  0  0  0  0  0  0  0  0
    2.5685   -2.6622   36.9040 C   0  0  0  0  0  0  0  0  0  0  0  0
    1.7074   -3.1060   33.0283 C   0  0  0  0  0  0  0  0  0  0  0  0
    2.7026   -2.7338   32.4649 O   0  0  0  0  0  0  0  0  0  0  0  0
    0.9609   -4.2832   32.4536 C   0  0  0  0  0  0  0  0  0  0  0  0
    0.6423   -4.1653   31.0280 C   0  0  0  0  0  0  0  0  0  0  0  0
    0.0196   -5.1398   30.3531 C   0  0  0  0  0  0  0  0  0  0  0  0
   -0.3682   -6.3175   31.0319 C   0  0  0  0  0  0  0  0  0  0  0  0
   -0.9923   -7.3997   30.6223 N   0  0  0  0  0  0  0  0  0  0  0  0
   -1.1874   -8.2033   31.7114 N   0  0  0  0  0  0  0  0  0  0  0  0
   -0.6548   -7.6044   32.7540 C   0  0  0  0  0  0  0  0  0  0  0  0
   -0.0944   -6.4048   32.3906 N   0  0  0  0  0  0  0  0  0  0  0  0
    0.6026   -5.4133   33.1166 C   0  0  0  0  0  0  0  0  0  0  0  0
    1.1011   -5.7572   34.7479 S   0  0  0  0  0  0  0  0  0  0  0  0
   -0.4522   -5.5280   35.6736 C   0  0  0  0  0  0  0  0  0  0  0  0
   -0.2540   -5.7766   37.1491 C   0  0  0  0  0  0  0  0  0  0  0  0
    0.2658   -6.9886   37.6213 C   0  0  0  0  0  0  0  0  0  0  0  0
    0.4276   -7.1661   38.9863 C   0  0  0  0  0  0  0  0  0  0  0  0
    0.0947   -6.2382   39.9067 N   0  0  0  0  0  0  0  0  0  0  0  0
   -0.4407   -5.0907   39.4386 C   0  0  0  0  0  0  0  0  0  0  0  0
   -0.6295   -4.8155   38.0916 C   0  0  0  0  0  0  0  0  0  0  0  0
   -0.7659   -1.2727   34.4401 H   0  0  0  0  0  0  0  0  0  0  0  0
   -0.6655   -2.1520   32.9692 H   0  0  0  0  0  0  0  0  0  0  0  0
    0.3534   -0.7653   33.0583 H   0  0  0  0  0  0  0  0  0  0  0  0
    0.6107   -1.2313   35.8275 H   0  0  0  0  0  0  0  0  0  0  0  0
    1.6395   -0.4758   34.5259 H   0  0  0  0  0  0  0  0  0  0  0  0
    3.9750   -0.7057   34.4942 H   0  0  0  0  0  0  0  0  0  0  0  0
    6.0203   -1.3722   35.7011 H   0  0  0  0  0  0  0  0  0  0  0  0
    5.8742   -2.8811   37.6659 H   0  0  0  0  0  0  0  0  0  0  0  0
    3.6655   -3.7223   38.4228 H   0  0  0  0  0  0  0  0  0  0  0  0
    1.6120   -3.0528   37.2379 H   0  0  0  0  0  0  0  0  0  0  0  0
    0.9409   -3.2533   30.5143 H   0  0  0  0  0  0  0  0  0  0  0  0
   -0.2161   -5.0203   29.3038 H   0  0  0  0  0  0  0  0  0  0  0  0
   -0.6588   -7.9911   33.7631 H   0  0  0  0  0  0  0  0  0  0  0  0
   -0.8075   -4.5060   35.5039 H   0  0  0  0  0  0  0  0  0  0  0  0
   -1.2240   -6.2110   35.3052 H   0  0  0  0  0  0  0  0  0  0  0  0
    0.5252   -7.7996   36.9477 H   0  0  0  0  0  0  0  0  0  0  0  0
    0.8233   -8.0971   39.3820 H   0  0  0  0  0  0  0  0  0  0  0  0
   -0.7304   -4.3727   40.2006 H   0  0  0  0  0  0  0  0  0  0  0  0
   -1.0692   -3.8696   37.7945 H   0  0  0  0  0  0  0  0  0  0  0  0
  1  2  1  0
  2  3  1  0
  3  4  1  0
  4  5  2  0
  5  6  1  0
  6  7  2  0
  7  8  1  0
  8  9  2  0
  2 10  1  0
 10 11  2  0
 10 12  1  0
 12 13  1  0
 13 14  2  0
 14 15  1  0
 15 16  2  0
 16 17  1  0
 17 18  2  0
 18 19  1  0
 19 20  1  0
 20 21  1  0
 21 22  1  0
 22 23  1  0
 23 24  2  0
 24 25  1  0
 25 26  2  0
 26 27  1  0
 27 28  2  0
  9  4  1  0
 20 12  2  0
 28 23  1  0
 19 15  1  0
  1 29  1  0
  1 30  1  0
  1 31  1  0
  3 32  1  0
  3 33  1  0
  5 34  1  0
  6 35  1  0
  7 36  1  0
  8 37  1  0
  9 38  1  0
 13 39  1  0
 14 40  1  0
 18 41  1  0
 22 42  1  0
 22 43  1  0
 24 44  1  0
 25 45  1  0
 27 46  1  0
 28 47  1  0
M  END
>  <Energy>  (1083) 
132.92412489258012

>  <compound_id>  (1083) 
2373

>  <target_id>  (1083) 
1

>  <reference_id>  (1083) 
195

>  <inspiration_ids>  (1083) 
[133, 195]

>  <energy_score>  (1083) 
39.38550550775261

>  <distance_score>  (1083) 
2.127395019223026

>  <path>  (1083) 
/opt/xchem-fragalysis-2/maxwin/BulkDock/SCRATCH/505734/C2373-P195/C2373-P195.minimised.mol

>  <scratch_subdir>  (1083) 
/opt/xchem-fragalysis-2/maxwin/BulkDock/SCRATCH/505734/C2373-P195

>  <fragmenstein_runtime>  (1083) 
8.630857944488525

>  <fragmenstein_outcome>  (1083) 
too moved

>  <fragmenstein_mode>  (1083) 
expansion

>  <fragmenstein_error>  (1083) 


$$$$
C3879-P133
     RDKit          3D

 48 51  0  0  0  0  0  0  0  0999 V2000
   -2.1730   -2.1978   32.8245 C   0  0  0  0  0  0  0  0  0  0  0  0
   -0.6917   -2.4600   32.7927 N   0  0  0  0  0  0  0  0  0  0  0  0
   -0.6949   -0.9870   32.5223 C   0  0  0  0  0  0  0  0  0  0  0  0
   -0.6293   -0.6316   31.0224 C   0  0  0  0  0  0  0  0  0  0  0  0
   -1.0266   -1.5013   29.9882 C   0  0  0  0  0  0  0  0  0  0  0  0
   -1.0369   -1.0821   28.6547 C   0  0  0  0  0  0  0  0  0  0  0  0
   -0.6117    0.1970   28.3226 C   0  0  0  0  0  0  0  0  0  0  0  0
   -0.1658    1.0529   29.3227 C   0  0  0  0  0  0  0  0  0  0  0  0
   -0.1726    0.6416   30.6599 C   0  0  0  0  0  0  0  0  0  0  0  0
   -0.2468   -3.2375   34.0139 C   0  0  0  0  0  0  0  0  0  0  0  0
    0.1245   -2.8593   35.0620 O   0  0  0  0  0  0  0  0  0  0  0  0
   -0.2387   -4.6858   33.6652 C   0  0  0  0  0  0  0  0  0  0  0  0
   -0.9786   -5.6069   34.3985 C   0  0  0  0  0  0  0  0  0  0  0  0
   -1.2625   -6.8816   33.8816 C   0  0  0  0  0  0  0  0  0  0  0  0
   -0.8480   -7.1736   32.5847 C   0  0  0  0  0  0  0  0  0  0  0  0
   -1.1359   -8.2457   31.7804 N   0  0  0  0  0  0  0  0  0  0  0  0
   -0.4266   -8.0436   30.6987 C   0  0  0  0  0  0  0  0  0  0  0  0
    0.2752   -6.8796   30.7560 N   0  0  0  0  0  0  0  0  0  0  0  0
    0.0153   -6.2863   31.9569 C   0  0  0  0  0  0  0  0  0  0  0  0
    0.4466   -5.0857   32.5139 C   0  0  0  0  0  0  0  0  0  0  0  0
    1.8260   -4.2570   31.7874 S   0  0  0  0  0  0  0  0  0  0  0  0
    2.9557   -4.2228   33.2332 C   0  0  0  0  0  0  0  0  0  0  0  0
    3.0845   -2.8809   33.8942 C   0  0  0  0  0  0  0  0  0  0  0  0
    3.1626   -1.7030   33.1431 C   0  0  0  0  0  0  0  0  0  0  0  0
    3.2524   -0.4997   33.8036 C   0  0  0  0  0  0  0  0  0  0  0  0
    3.3044   -0.3993   35.1431 N   0  0  0  0  0  0  0  0  0  0  0  0
    3.2755   -1.5461   35.8597 C   0  0  0  0  0  0  0  0  0  0  0  0
    3.1746   -2.7964   35.2876 C   0  0  0  0  0  0  0  0  0  0  0  0
   -2.6732   -1.6916   31.9859 H   0  0  0  0  0  0  0  0  0  0  0  0
   -2.5021   -1.8187   33.8057 H   0  0  0  0  0  0  0  0  0  0  0  0
   -2.6024   -3.1967   32.7745 H   0  0  0  0  0  0  0  0  0  0  0  0
    0.3045   -0.7115   32.8945 H   0  0  0  0  0  0  0  0  0  0  0  0
   -1.3242   -0.3013   33.1219 H   0  0  0  0  0  0  0  0  0  0  0  0
   -1.3476   -2.5175   30.2022 H   0  0  0  0  0  0  0  0  0  0  0  0
   -1.3851   -1.7562   27.8752 H   0  0  0  0  0  0  0  0  0  0  0  0
   -0.6311    0.5194   27.2852 H   0  0  0  0  0  0  0  0  0  0  0  0
    0.1721    2.0538   29.0637 H   0  0  0  0  0  0  0  0  0  0  0  0
    0.1734    1.3379   31.4213 H   0  0  0  0  0  0  0  0  0  0  0  0
   -1.4145   -5.3126   35.3523 H   0  0  0  0  0  0  0  0  0  0  0  0
   -1.8725   -7.5859   34.4402 H   0  0  0  0  0  0  0  0  0  0  0  0
   -0.3513   -8.7138   29.8519 H   0  0  0  0  0  0  0  0  0  0  0  0
    0.8677   -6.4962   30.0326 H   0  0  0  0  0  0  0  0  0  0  0  0
    3.9481   -4.5094   32.8659 H   0  0  0  0  0  0  0  0  0  0  0  0
    2.6617   -4.9937   33.9543 H   0  0  0  0  0  0  0  0  0  0  0  0
    3.1280   -1.7080   32.0586 H   0  0  0  0  0  0  0  0  0  0  0  0
    3.2906    0.4399   33.2618 H   0  0  0  0  0  0  0  0  0  0  0  0
    3.3160   -1.4211   36.9371 H   0  0  0  0  0  0  0  0  0  0  0  0
    3.1227   -3.6765   35.9183 H   0  0  0  0  0  0  0  0  0  0  0  0
  1  2  1  0
  2  3  1  0
  3  4  1  0
  4  5  2  0
  5  6  1  0
  6  7  2  0
  7  8  1  0
  8  9  2  0
  2 10  1  0
 10 11  2  0
 10 12  1  0
 12 13  2  0
 13 14  1  0
 14 15  2  0
 15 16  1  0
 16 17  2  0
 17 18  1  0
 18 19  1  0
 19 20  2  0
 20 21  1  0
 21 22  1  0
 22 23  1  0
 23 24  2  0
 24 25  1  0
 25 26  2  0
 26 27  1  0
 27 28  2  0
  9  4  1  0
 20 12  1  0
 28 23  1  0
 19 15  1  0
  1 29  1  0
  1 30  1  0
  1 31  1  0
  3 32  1  0
  3 33  1  0
  5 34  1  0
  6 35  1  0
  7 36  1  0
  8 37  1  0
  9 38  1  0
 13 39  1  0
 14 40  1  0
 17 41  1  0
 18 42  1  0
 22 43  1  0
 22 44  1  0
 24 45  1  0
 25 46  1  0
 27 47  1  0
 28 48  1  0
M  END
>  <Energy>  (1084) 
149.09024929408778

>  <compound_id>  (1084) 
3879

>  <target_id>  (1084) 
1

>  <reference_id>  (1084) 
133

>  <inspiration_ids>  (1084) 
[133, 196]

>  <energy_score>  (1084) 
77.37626639499382

>  <distance_score>  (1084) 
2.3279986393654872

>  <path>  (1084) 
/opt/xchem-fragalysis-2/maxwin/BulkDock/SCRATCH/505734/C3879-P133/C3879-P133.minimised.mol

>  <scratch_subdir>  (1084) 
/opt/xchem-fragalysis-2/maxwin/BulkDock/SCRATCH/505734/C3879-P133

>  <fragmenstein_runtime>  (1084) 
21.3350772857666

>  <fragmenstein_outcome>  (1084) 
too moved

>  <fragmenstein_mode>  (1084) 
expansion

>  <fragmenstein_error>  (1084) 


$$$$
C3879-P196
     RDKit          3D

 48 51  0  0  0  0  0  0  0  0999 V2000
   -2.1773   -2.2755   32.9390 C   0  0  0  0  0  0  0  0  0  0  0  0
   -0.6934   -2.5174   32.9225 N   0  0  0  0  0  0  0  0  0  0  0  0
   -0.7121   -1.0394   32.6999 C   0  0  0  0  0  0  0  0  0  0  0  0
   -0.6388   -0.6584   31.2061 C   0  0  0  0  0  0  0  0  0  0  0  0
   -0.9704   -1.5426   30.1564 C   0  0  0  0  0  0  0  0  0  0  0  0
   -0.9216   -1.1353   28.8231 C   0  0  0  0  0  0  0  0  0  0  0  0
   -0.5041    0.1512   28.5183 C   0  0  0  0  0  0  0  0  0  0  0  0
   -0.1480    1.0325   29.5330 C   0  0  0  0  0  0  0  0  0  0  0  0
   -0.2172    0.6323   30.8682 C   0  0  0  0  0  0  0  0  0  0  0  0
   -0.2572   -3.3280   34.1248 C   0  0  0  0  0  0  0  0  0  0  0  0
    0.0927   -2.9791   35.1905 O   0  0  0  0  0  0  0  0  0  0  0  0
   -0.2259   -4.7648   33.7256 C   0  0  0  0  0  0  0  0  0  0  0  0
   -0.9425   -5.7210   34.4378 C   0  0  0  0  0  0  0  0  0  0  0  0
   -1.2196   -6.9798   33.8804 C   0  0  0  0  0  0  0  0  0  0  0  0
   -0.8234   -7.2209   32.5673 C   0  0  0  0  0  0  0  0  0  0  0  0
   -1.1117   -8.2674   31.7295 N   0  0  0  0  0  0  0  0  0  0  0  0
   -0.4121   -8.0257   30.6498 C   0  0  0  0  0  0  0  0  0  0  0  0
    0.2698   -6.8515   30.7343 N   0  0  0  0  0  0  0  0  0  0  0  0
    0.0195   -6.3019   31.9582 C   0  0  0  0  0  0  0  0  0  0  0  0
    0.4454   -5.1157   32.5496 C   0  0  0  0  0  0  0  0  0  0  0  0
    1.7988   -4.2446   31.8233 S   0  0  0  0  0  0  0  0  0  0  0  0
    2.9420   -4.2019   33.2569 C   0  0  0  0  0  0  0  0  0  0  0  0
    3.0645   -2.8564   33.9110 C   0  0  0  0  0  0  0  0  0  0  0  0
    3.1543   -1.6849   33.1511 C   0  0  0  0  0  0  0  0  0  0  0  0
    3.2349   -0.4764   33.8027 C   0  0  0  0  0  0  0  0  0  0  0  0
    3.2655   -0.3653   35.1422 N   0  0  0  0  0  0  0  0  0  0  0  0
    3.2287   -1.5067   35.8675 C   0  0  0  0  0  0  0  0  0  0  0  0
    3.1362   -2.7614   35.3043 C   0  0  0  0  0  0  0  0  0  0  0  0
   -2.6759   -1.7167   32.1318 H   0  0  0  0  0  0  0  0  0  0  0  0
   -2.5290   -1.9717   33.9378 H   0  0  0  0  0  0  0  0  0  0  0  0
   -2.5832   -3.2738   32.7944 H   0  0  0  0  0  0  0  0  0  0  0  0
    0.2790   -0.7586   33.0886 H   0  0  0  0  0  0  0  0  0  0  0  0
   -1.3603   -0.3809   33.3099 H   0  0  0  0  0  0  0  0  0  0  0  0
   -1.2634   -2.5693   30.3617 H   0  0  0  0  0  0  0  0  0  0  0  0
   -1.1926   -1.8294   28.0304 H   0  0  0  0  0  0  0  0  0  0  0  0
   -0.4391    0.4671   27.4856 H   0  0  0  0  0  0  0  0  0  0  0  0
    0.1892    2.0347   29.2773 H   0  0  0  0  0  0  0  0  0  0  0  0
    0.0747    1.3374   31.6435 H   0  0  0  0  0  0  0  0  0  0  0  0
   -1.3700   -5.4657   35.4065 H   0  0  0  0  0  0  0  0  0  0  0  0
   -1.8095   -7.7130   34.4237 H   0  0  0  0  0  0  0  0  0  0  0  0
   -0.3352   -8.6709   29.7840 H   0  0  0  0  0  0  0  0  0  0  0  0
    0.8476   -6.4347   30.0173 H   0  0  0  0  0  0  0  0  0  0  0  0
    3.9334   -4.4807   32.8812 H   0  0  0  0  0  0  0  0  0  0  0  0
    2.6627   -4.9733   33.9832 H   0  0  0  0  0  0  0  0  0  0  0  0
    3.1348   -1.6996   32.0662 H   0  0  0  0  0  0  0  0  0  0  0  0
    3.2815    0.4585   33.2534 H   0  0  0  0  0  0  0  0  0  0  0  0
    3.2540   -1.3733   36.9444 H   0  0  0  0  0  0  0  0  0  0  0  0
    3.0743   -3.6364   35.9412 H   0  0  0  0  0  0  0  0  0  0  0  0
  1  2  1  0
  2  3  1  0
  3  4  1  0
  4  5  2  0
  5  6  1  0
  6  7  2  0
  7  8  1  0
  8  9  2  0
  2 10  1  0
 10 11  2  0
 10 12  1  0
 12 13  2  0
 13 14  1  0
 14 15  2  0
 15 16  1  0
 16 17  2  0
 17 18  1  0
 18 19  1  0
 19 20  2  0
 20 21  1  0
 21 22  1  0
 22 23  1  0
 23 24  2  0
 24 25  1  0
 25 26  2  0
 26 27  1  0
 27 28  2  0
  9  4  1  0
 20 12  1  0
 28 23  1  0
 19 15  1  0
  1 29  1  0
  1 30  1  0
  1 31  1  0
  3 32  1  0
  3 33  1  0
  5 34  1  0
  6 35  1  0
  7 36  1  0
  8 37  1  0
  9 38  1  0
 13 39  1  0
 14 40  1  0
 17 41  1  0
 18 42  1  0
 22 43  1  0
 22 44  1  0
 24 45  1  0
 25 46  1  0
 27 47  1  0
 28 48  1  0
M  END
>  <Energy>  (1085) 
148.7039079197645

>  <compound_id>  (1085) 
3879

>  <target_id>  (1085) 
1

>  <reference_id>  (1085) 
196

>  <inspiration_ids>  (1085) 
[133, 196]

>  <energy_score>  (1085) 
76.98992502067222

>  <distance_score>  (1085) 
2.35303047802032

>  <path>  (1085) 
/opt/xchem-fragalysis-2/maxwin/BulkDock/SCRATCH/505734/C3879-P196/C3879-P196.minimised.mol

>  <scratch_subdir>  (1085) 
/opt/xchem-fragalysis-2/maxwin/BulkDock/SCRATCH/505734/C3879-P196

>  <fragmenstein_runtime>  (1085) 
20.437865495681763

>  <fragmenstein_outcome>  (1085) 
too moved

>  <fragmenstein_mode>  (1085) 
expansion

>  <fragmenstein_error>  (1085) 


$$$$
C3880-P133
     RDKit          3D

 48 52  0  0  0  0  0  0  0  0999 V2000
    3.2718   -3.4192   29.2782 C   0  0  0  0  0  0  0  0  0  0  0  0
    1.8109   -3.0853   29.4669 N   0  0  0  0  0  0  0  0  0  0  0  0
    2.2162   -1.9581   28.5641 C   0  0  0  0  0  0  0  0  0  0  0  0
    0.9961   -1.0232   28.5547 C   0  0  0  0  0  0  0  0  0  0  0  0
    1.1475    0.3460   28.8100 C   0  0  0  0  0  0  0  0  0  0  0  0
    0.0451    1.1931   28.8501 C   0  0  0  0  0  0  0  0  0  0  0  0
   -1.2189    0.6821   28.6013 C   0  0  0  0  0  0  0  0  0  0  0  0
   -1.3805   -0.6701   28.3207 C   0  0  0  0  0  0  0  0  0  0  0  0
   -0.2863   -1.5227   28.3230 C   0  0  0  0  0  0  0  0  0  0  0  0
    1.4377   -3.0881   30.9118 C   0  0  0  0  0  0  0  0  0  0  0  0
    1.4508   -2.2220   31.6990 O   0  0  0  0  0  0  0  0  0  0  0  0
    0.8669   -4.4353   31.3377 C   0  0  0  0  0  0  0  0  0  0  0  0
    0.8051   -5.4962   30.4058 C   0  0  0  0  0  0  0  0  0  0  0  0
    0.1997   -6.7245   30.7031 C   0  0  0  0  0  0  0  0  0  0  0  0
   -0.3542   -6.9001   31.9650 C   0  0  0  0  0  0  0  0  0  0  0  0
   -1.0207   -7.9820   32.4684 N   0  0  0  0  0  0  0  0  0  0  0  0
   -1.3372   -7.6355   33.6949 C   0  0  0  0  0  0  0  0  0  0  0  0
   -0.9205   -6.3727   33.9880 N   0  0  0  0  0  0  0  0  0  0  0  0
   -0.2809   -5.8658   32.8837 C   0  0  0  0  0  0  0  0  0  0  0  0
    0.2939   -4.6099   32.6224 C   0  0  0  0  0  0  0  0  0  0  0  0
   -0.0005   -3.3887   33.8647 S   0  0  0  0  0  0  0  0  0  0  0  0
    1.5924   -3.0291   34.4759 C   0  0  0  0  0  0  0  0  0  0  0  0
    2.1382   -3.8990   35.2650 N   0  0  0  0  0  0  0  0  0  0  0  0
    3.3723   -3.6156   35.8098 C   0  0  0  0  0  0  0  0  0  0  0  0
    3.9313   -4.3889   36.5788 O   0  0  0  0  0  0  0  0  0  0  0  0
    3.9342   -2.3686   35.3548 C   0  0  0  0  0  0  0  0  0  0  0  0
    5.4851   -1.8409   35.7456 S   0  0  0  0  0  0  0  0  0  0  0  0
    5.2875   -0.4012   34.8259 C   0  0  0  0  0  0  0  0  0  0  0  0
    4.0541   -0.3485   34.2078 C   0  0  0  0  0  0  0  0  0  0  0  0
    3.2943   -1.4947   34.5217 C   0  0  0  0  0  0  0  0  0  0  0  0
    2.0640   -1.7993   34.0973 N   0  0  0  0  0  0  0  0  0  0  0  0
    3.9624   -2.7581   29.8264 H   0  0  0  0  0  0  0  0  0  0  0  0
    3.4109   -4.3762   29.8035 H   0  0  0  0  0  0  0  0  0  0  0  0
    3.5812   -3.6596   28.2489 H   0  0  0  0  0  0  0  0  0  0  0  0
    2.3664   -2.2681   27.5223 H   0  0  0  0  0  0  0  0  0  0  0  0
    3.0293   -1.3151   28.9411 H   0  0  0  0  0  0  0  0  0  0  0  0
    2.1312    0.7676   29.0007 H   0  0  0  0  0  0  0  0  0  0  0  0
    0.1717    2.2541   29.0495 H   0  0  0  0  0  0  0  0  0  0  0  0
   -2.0714    1.3553   28.5798 H   0  0  0  0  0  0  0  0  0  0  0  0
   -2.3508   -1.0802   28.0695 H   0  0  0  0  0  0  0  0  0  0  0  0
   -0.4499   -2.5790   28.1307 H   0  0  0  0  0  0  0  0  0  0  0  0
    1.1940   -5.3721   29.3994 H   0  0  0  0  0  0  0  0  0  0  0  0
    0.1464   -7.5284   29.9808 H   0  0  0  0  0  0  0  0  0  0  0  0
   -1.8719   -8.2409   34.4138 H   0  0  0  0  0  0  0  0  0  0  0  0
   -1.0716   -5.8733   34.8553 H   0  0  0  0  0  0  0  0  0  0  0  0
    6.0867    0.3264   34.7806 H   0  0  0  0  0  0  0  0  0  0  0  0
    3.7339    0.4695   33.5746 H   0  0  0  0  0  0  0  0  0  0  0  0
    1.6386   -1.4168   33.2477 H   0  0  0  0  0  0  0  0  0  0  0  0
  1  2  1  0
  2  3  1  0
  3  4  1  0
  4  5  2  0
  5  6  1  0
  6  7  2  0
  7  8  1  0
  8  9  2  0
  2 10  1  0
 10 11  2  0
 10 12  1  0
 12 13  2  0
 13 14  1  0
 14 15  2  0
 15 16  1  0
 16 17  2  0
 17 18  1  0
 18 19  1  0
 19 20  2  0
 20 21  1  0
 21 22  1  0
 22 23  2  0
 23 24  1  0
 24 25  2  0
 24 26  1  0
 26 27  1  0
 27 28  1  0
 28 29  2  0
 29 30  1  0
 30 31  1  0
  9  4  1  0
 20 12  1  0
 31 22  1  0
 19 15  1  0
 30 26  2  0
  1 32  1  0
  1 33  1  0
  1 34  1  0
  3 35  1  0
  3 36  1  0
  5 37  1  0
  6 38  1  0
  7 39  1  0
  8 40  1  0
  9 41  1  0
 13 42  1  0
 14 43  1  0
 17 44  1  0
 18 45  1  0
 28 46  1  0
 29 47  1  0
 31 48  1  0
M  END
>  <Energy>  (1086) 
62.074742529863173

>  <compound_id>  (1086) 
3880

>  <target_id>  (1086) 
1

>  <reference_id>  (1086) 
133

>  <inspiration_ids>  (1086) 
[133, 197]

>  <energy_score>  (1086) 
26.26720697360878

>  <distance_score>  (1086) 
2.322688682117409

>  <path>  (1086) 
/opt/xchem-fragalysis-2/maxwin/BulkDock/SCRATCH/505734/C3880-P133/C3880-P133.minimised.mol

>  <scratch_subdir>  (1086) 
/opt/xchem-fragalysis-2/maxwin/BulkDock/SCRATCH/505734/C3880-P133

>  <fragmenstein_runtime>  (1086) 
12.16804838180542

>  <fragmenstein_outcome>  (1086) 
too moved

>  <fragmenstein_mode>  (1086) 
expansion

>  <fragmenstein_error>  (1086) 


$$$$
C3880-P197
     RDKit          3D

 48 52  0  0  0  0  0  0  0  0999 V2000
    2.8649   -4.0890   28.2851 C   0  0  0  0  0  0  0  0  0  0  0  0
    1.5946   -3.5193   28.8862 N   0  0  0  0  0  0  0  0  0  0  0  0
    1.9044   -2.4492   27.8806 C   0  0  0  0  0  0  0  0  0  0  0  0
    0.7953   -1.4201   28.1332 C   0  0  0  0  0  0  0  0  0  0  0  0
    1.0611   -0.2565   28.8724 C   0  0  0  0  0  0  0  0  0  0  0  0
    0.0371    0.6075   29.2434 C   0  0  0  0  0  0  0  0  0  0  0  0
   -1.2640    0.3103   28.8734 C   0  0  0  0  0  0  0  0  0  0  0  0
   -1.5336   -0.8344   28.1213 C   0  0  0  0  0  0  0  0  0  0  0  0
   -0.5152   -1.7015   27.7523 C   0  0  0  0  0  0  0  0  0  0  0  0
    1.6623   -3.5017   30.3863 C   0  0  0  0  0  0  0  0  0  0  0  0
    2.0503   -2.6705   31.1197 O   0  0  0  0  0  0  0  0  0  0  0  0
    1.0214   -4.7453   30.9882 C   0  0  0  0  0  0  0  0  0  0  0  0
    0.8815   -5.9165   30.2233 C   0  0  0  0  0  0  0  0  0  0  0  0
    0.2087   -7.0540   30.6883 C   0  0  0  0  0  0  0  0  0  0  0  0
   -0.3082   -7.0307   31.9767 C   0  0  0  0  0  0  0  0  0  0  0  0
   -0.9761   -8.0127   32.6500 N   0  0  0  0  0  0  0  0  0  0  0  0
   -1.2303   -7.4962   33.8299 C   0  0  0  0  0  0  0  0  0  0  0  0
   -0.8157   -6.1994   33.9121 N   0  0  0  0  0  0  0  0  0  0  0  0
   -0.1835   -5.8774   32.7355 C   0  0  0  0  0  0  0  0  0  0  0  0
    0.4200   -4.6943   32.2709 C   0  0  0  0  0  0  0  0  0  0  0  0
    0.0817   -3.2414   33.2182 S   0  0  0  0  0  0  0  0  0  0  0  0
    1.5754   -2.9599   34.0675 C   0  0  0  0  0  0  0  0  0  0  0  0
    1.8467   -3.7338   35.0705 N   0  0  0  0  0  0  0  0  0  0  0  0
    2.9776   -3.4794   35.8178 C   0  0  0  0  0  0  0  0  0  0  0  0
    3.2974   -4.1896   36.7636 O   0  0  0  0  0  0  0  0  0  0  0  0
    3.7238   -2.3322   35.3659 C   0  0  0  0  0  0  0  0  0  0  0  0
    5.1620   -1.8140   36.0733 S   0  0  0  0  0  0  0  0  0  0  0  0
    5.3023   -0.5094   34.9615 C   0  0  0  0  0  0  0  0  0  0  0  0
    4.2667   -0.4950   34.0485 C   0  0  0  0  0  0  0  0  0  0  0  0
    3.3723   -1.5574   34.2951 C   0  0  0  0  0  0  0  0  0  0  0  0
    2.2632   -1.8661   33.6150 N   0  0  0  0  0  0  0  0  0  0  0  0
    3.7796   -3.5096   28.4934 H   0  0  0  0  0  0  0  0  0  0  0  0
    3.0807   -5.0152   28.8344 H   0  0  0  0  0  0  0  0  0  0  0  0
    2.7630   -4.4255   27.2423 H   0  0  0  0  0  0  0  0  0  0  0  0
    1.7783   -2.7578   26.8302 H   0  0  0  0  0  0  0  0  0  0  0  0
    2.8395   -1.8907   28.0497 H   0  0  0  0  0  0  0  0  0  0  0  0
    2.0746   -0.0387   29.2013 H   0  0  0  0  0  0  0  0  0  0  0  0
    0.2544    1.5015   29.8191 H   0  0  0  0  0  0  0  0  0  0  0  0
   -2.0676    0.9863   29.1434 H   0  0  0  0  0  0  0  0  0  0  0  0
   -2.5430   -1.0791   27.8195 H   0  0  0  0  0  0  0  0  0  0  0  0
   -0.7615   -2.6120   27.2097 H   0  0  0  0  0  0  0  0  0  0  0  0
    1.2692   -5.9641   29.2152 H   0  0  0  0  0  0  0  0  0  0  0  0
    0.1111   -7.9458   30.0795 H   0  0  0  0  0  0  0  0  0  0  0  0
   -1.7196   -8.0053   34.6500 H   0  0  0  0  0  0  0  0  0  0  0  0
   -0.9397   -5.5734   34.6983 H   0  0  0  0  0  0  0  0  0  0  0  0
    6.1394    0.1725   35.0305 H   0  0  0  0  0  0  0  0  0  0  0  0
    4.1751    0.2398   33.2586 H   0  0  0  0  0  0  0  0  0  0  0  0
    2.0612   -1.5793   32.6546 H   0  0  0  0  0  0  0  0  0  0  0  0
  1  2  1  0
  2  3  1  0
  3  4  1  0
  4  5  2  0
  5  6  1  0
  6  7  2  0
  7  8  1  0
  8  9  2  0
  2 10  1  0
 10 11  2  0
 10 12  1  0
 12 13  2  0
 13 14  1  0
 14 15  2  0
 15 16  1  0
 16 17  2  0
 17 18  1  0
 18 19  1  0
 19 20  2  0
 20 21  1  0
 21 22  1  0
 22 23  2  0
 23 24  1  0
 24 25  2  0
 24 26  1  0
 26 27  1  0
 27 28  1  0
 28 29  2  0
 29 30  1  0
 30 31  1  0
  9  4  1  0
 20 12  1  0
 31 22  1  0
 19 15  1  0
 30 26  2  0
  1 32  1  0
  1 33  1  0
  1 34  1  0
  3 35  1  0
  3 36  1  0
  5 37  1  0
  6 38  1  0
  7 39  1  0
  8 40  1  0
  9 41  1  0
 13 42  1  0
 14 43  1  0
 17 44  1  0
 18 45  1  0
 28 46  1  0
 29 47  1  0
 31 48  1  0
M  END
>  <Energy>  (1087) 
62.718921805962836

>  <compound_id>  (1087) 
3880

>  <target_id>  (1087) 
1

>  <reference_id>  (1087) 
197

>  <inspiration_ids>  (1087) 
[133, 197]

>  <energy_score>  (1087) 
26.911386249706368

>  <distance_score>  (1087) 
2.334674230192351

>  <path>  (1087) 
/opt/xchem-fragalysis-2/maxwin/BulkDock/SCRATCH/505734/C3880-P197/C3880-P197.minimised.mol

>  <scratch_subdir>  (1087) 
/opt/xchem-fragalysis-2/maxwin/BulkDock/SCRATCH/505734/C3880-P197

>  <fragmenstein_runtime>  (1087) 
10.72334623336792

>  <fragmenstein_outcome>  (1087) 
too moved

>  <fragmenstein_mode>  (1087) 
expansion

>  <fragmenstein_error>  (1087) 


$$$$
C2442-P133
     RDKit          3D

 47 51  0  0  0  0  0  0  0  0999 V2000
    5.3575   -3.6357   31.9685 C   0  0  0  0  0  0  0  0  0  0  0  0
    4.0587   -3.3340   32.6715 N   0  0  0  0  0  0  0  0  0  0  0  0
    4.9787   -2.5640   33.5772 C   0  0  0  0  0  0  0  0  0  0  0  0
    4.1115   -2.0375   34.7237 C   0  0  0  0  0  0  0  0  0  0  0  0
    3.5548   -0.7523   34.6682 C   0  0  0  0  0  0  0  0  0  0  0  0
    2.7595   -0.2844   35.7139 C   0  0  0  0  0  0  0  0  0  0  0  0
    2.4980   -1.1008   36.8140 C   0  0  0  0  0  0  0  0  0  0  0  0
    3.0231   -2.3896   36.8669 C   0  0  0  0  0  0  0  0  0  0  0  0
    3.8238   -2.8580   35.8255 C   0  0  0  0  0  0  0  0  0  0  0  0
    3.0880   -2.8839   31.7352 C   0  0  0  0  0  0  0  0  0  0  0  0
    2.8172   -1.7759   31.3629 O   0  0  0  0  0  0  0  0  0  0  0  0
    2.2630   -4.0455   31.2688 C   0  0  0  0  0  0  0  0  0  0  0  0
    2.4981   -4.5823   29.9374 C   0  0  0  0  0  0  0  0  0  0  0  0
    1.8046   -5.6361   29.4789 C   0  0  0  0  0  0  0  0  0  0  0  0
    0.7891   -6.2234   30.2821 C   0  0  0  0  0  0  0  0  0  0  0  0
   -0.0031   -7.2587   30.0989 N   0  0  0  0  0  0  0  0  0  0  0  0
   -0.7927   -7.3911   31.2156 N   0  0  0  0  0  0  0  0  0  0  0  0
   -0.4535   -6.4392   32.0563 C   0  0  0  0  0  0  0  0  0  0  0  0
    0.5569   -5.6700   31.5301 N   0  0  0  0  0  0  0  0  0  0  0  0
    1.2850   -4.5826   32.0369 C   0  0  0  0  0  0  0  0  0  0  0  0
    0.8721   -3.9665   33.5951 S   0  0  0  0  0  0  0  0  0  0  0  0
   -0.1699   -2.6197   33.1516 C   0  0  0  0  0  0  0  0  0  0  0  0
   -0.7532   -2.6095   31.9923 N   0  0  0  0  0  0  0  0  0  0  0  0
   -1.6399   -1.5729   31.7374 C   0  0  0  0  0  0  0  0  0  0  0  0
   -1.9688   -1.2299   30.6102 O   0  0  0  0  0  0  0  0  0  0  0  0
   -2.1469   -0.9788   32.9542 C   0  0  0  0  0  0  0  0  0  0  0  0
   -3.6617   -0.2630   33.1491 S   0  0  0  0  0  0  0  0  0  0  0  0
   -3.3324    0.1204   34.7873 C   0  0  0  0  0  0  0  0  0  0  0  0
   -2.1047   -0.3601   35.1944 C   0  0  0  0  0  0  0  0  0  0  0  0
   -1.4612   -1.0305   34.1365 C   0  0  0  0  0  0  0  0  0  0  0  0
   -0.3164   -1.7274   34.1853 N   0  0  0  0  0  0  0  0  0  0  0  0
    5.8274   -2.7680   31.4792 H   0  0  0  0  0  0  0  0  0  0  0  0
    5.0954   -4.2827   31.1195 H   0  0  0  0  0  0  0  0  0  0  0  0
    6.0541   -4.2658   32.5416 H   0  0  0  0  0  0  0  0  0  0  0  0
    5.4038   -1.6674   33.0974 H   0  0  0  0  0  0  0  0  0  0  0  0
    5.7561   -3.1599   34.0828 H   0  0  0  0  0  0  0  0  0  0  0  0
    3.7310   -0.1121   33.8052 H   0  0  0  0  0  0  0  0  0  0  0  0
    2.3417    0.7185   35.6667 H   0  0  0  0  0  0  0  0  0  0  0  0
    1.8851   -0.7294   37.6316 H   0  0  0  0  0  0  0  0  0  0  0  0
    2.8144   -3.0280   37.7218 H   0  0  0  0  0  0  0  0  0  0  0  0
    4.2223   -3.8686   35.8750 H   0  0  0  0  0  0  0  0  0  0  0  0
    3.2497   -4.1009   29.3182 H   0  0  0  0  0  0  0  0  0  0  0  0
    2.0135   -6.0416   28.4985 H   0  0  0  0  0  0  0  0  0  0  0  0
   -0.8923   -6.2736   33.0299 H   0  0  0  0  0  0  0  0  0  0  0  0
   -4.0655    0.6491   35.3819 H   0  0  0  0  0  0  0  0  0  0  0  0
   -1.7326   -0.2641   36.2066 H   0  0  0  0  0  0  0  0  0  0  0  0
    0.1764   -1.9442   35.0455 H   0  0  0  0  0  0  0  0  0  0  0  0
  1  2  1  0
  2  3  1  0
  3  4  1  0
  4  5  2  0
  5  6  1  0
  6  7  2  0
  7  8  1  0
  8  9  2  0
  2 10  1  0
 10 11  2  0
 10 12  1  0
 12 13  1  0
 13 14  2  0
 14 15  1  0
 15 16  2  0
 16 17  1  0
 17 18  2  0
 18 19  1  0
 19 20  1  0
 20 21  1  0
 21 22  1  0
 22 23  2  0
 23 24  1  0
 24 25  2  0
 24 26  1  0
 26 27  1  0
 27 28  1  0
 28 29  2  0
 29 30  1  0
 30 31  1  0
  9  4  1  0
 20 12  2  0
 31 22  1  0
 19 15  1  0
 30 26  2  0
  1 32  1  0
  1 33  1  0
  1 34  1  0
  3 35  1  0
  3 36  1  0
  5 37  1  0
  6 38  1  0
  7 39  1  0
  8 40  1  0
  9 41  1  0
 13 42  1  0
 14 43  1  0
 18 44  1  0
 28 45  1  0
 29 46  1  0
 31 47  1  0
M  END
>  <Energy>  (1088) 
54.130076272449607

>  <compound_id>  (1088) 
2442

>  <target_id>  (1088) 
1

>  <reference_id>  (1088) 
133

>  <inspiration_ids>  (1088) 
[133, 198]

>  <energy_score>  (1088) 
14.711376336193183

>  <distance_score>  (1088) 
3.3190040872357636

>  <path>  (1088) 
/opt/xchem-fragalysis-2/maxwin/BulkDock/SCRATCH/505734/C2442-P133/C2442-P133.minimised.mol

>  <scratch_subdir>  (1088) 
/opt/xchem-fragalysis-2/maxwin/BulkDock/SCRATCH/505734/C2442-P133

>  <fragmenstein_runtime>  (1088) 
6.207050085067749

>  <fragmenstein_outcome>  (1088) 
too moved

>  <fragmenstein_mode>  (1088) 
expansion

>  <fragmenstein_error>  (1088) 


$$$$
C2442-P198
     RDKit          3D

 47 51  0  0  0  0  0  0  0  0999 V2000
    2.3094   -0.5973   32.0312 C   0  0  0  0  0  0  0  0  0  0  0  0
    2.0055   -1.1307   33.3922 N   0  0  0  0  0  0  0  0  0  0  0  0
    2.4788    0.2401   33.7982 C   0  0  0  0  0  0  0  0  0  0  0  0
    2.9970    0.0243   35.2228 C   0  0  0  0  0  0  0  0  0  0  0  0
    4.3768   -0.0774   35.4615 C   0  0  0  0  0  0  0  0  0  0  0  0
    4.8526   -0.4063   36.7305 C   0  0  0  0  0  0  0  0  0  0  0  0
    3.9562   -0.6504   37.7691 C   0  0  0  0  0  0  0  0  0  0  0  0
    2.5840   -0.5526   37.5439 C   0  0  0  0  0  0  0  0  0  0  0  0
    2.1046   -0.2149   36.2781 C   0  0  0  0  0  0  0  0  0  0  0  0
    0.7024   -1.7091   33.4132 C   0  0  0  0  0  0  0  0  0  0  0  0
   -0.3623   -1.2230   33.6743 O   0  0  0  0  0  0  0  0  0  0  0  0
    0.8146   -3.1994   33.1415 C   0  0  0  0  0  0  0  0  0  0  0  0
    1.9431   -3.8850   33.8049 C   0  0  0  0  0  0  0  0  0  0  0  0
    2.0552   -5.2186   33.8605 C   0  0  0  0  0  0  0  0  0  0  0  0
    1.0584   -6.0083   33.2609 C   0  0  0  0  0  0  0  0  0  0  0  0
    0.8961   -7.3070   33.2139 N   0  0  0  0  0  0  0  0  0  0  0  0
   -0.2214   -7.5635   32.4697 N   0  0  0  0  0  0  0  0  0  0  0  0
   -0.7288   -6.4085   32.1152 C   0  0  0  0  0  0  0  0  0  0  0  0
    0.0245   -5.3668   32.5963 N   0  0  0  0  0  0  0  0  0  0  0  0
   -0.1219   -3.9604   32.5118 C   0  0  0  0  0  0  0  0  0  0  0  0
   -1.5484   -3.3698   31.6948 S   0  0  0  0  0  0  0  0  0  0  0  0
   -0.9905   -2.2179   30.4944 C   0  0  0  0  0  0  0  0  0  0  0  0
   -1.6662   -1.1177   30.4060 N   0  0  0  0  0  0  0  0  0  0  0  0
   -1.2530   -0.1440   29.5130 C   0  0  0  0  0  0  0  0  0  0  0  0
   -1.9123    0.8579   29.2762 O   0  0  0  0  0  0  0  0  0  0  0  0
    0.0552   -0.3961   28.9626 C   0  0  0  0  0  0  0  0  0  0  0  0
    1.0015    0.7645   28.1775 S   0  0  0  0  0  0  0  0  0  0  0  0
    2.2756   -0.3672   27.9536 C   0  0  0  0  0  0  0  0  0  0  0  0
    1.9710   -1.6110   28.4696 C   0  0  0  0  0  0  0  0  0  0  0  0
    0.6965   -1.5987   29.0729 C   0  0  0  0  0  0  0  0  0  0  0  0
    0.1163   -2.5883   29.7701 N   0  0  0  0  0  0  0  0  0  0  0  0
    2.0564   -1.4161   31.3517 H   0  0  0  0  0  0  0  0  0  0  0  0
    3.3833   -0.4619   31.8276 H   0  0  0  0  0  0  0  0  0  0  0  0
    1.6665    0.2375   31.7106 H   0  0  0  0  0  0  0  0  0  0  0  0
    1.6220    0.9290   33.8491 H   0  0  0  0  0  0  0  0  0  0  0  0
    3.3207    0.7369   33.2853 H   0  0  0  0  0  0  0  0  0  0  0  0
    5.0907    0.0789   34.6564 H   0  0  0  0  0  0  0  0  0  0  0  0
    5.9221   -0.4830   36.9087 H   0  0  0  0  0  0  0  0  0  0  0  0
    4.3257   -0.9128   38.7571 H   0  0  0  0  0  0  0  0  0  0  0  0
    1.8845   -0.7452   38.3536 H   0  0  0  0  0  0  0  0  0  0  0  0
    1.0297   -0.1689   36.1093 H   0  0  0  0  0  0  0  0  0  0  0  0
    2.6877   -3.2772   34.3165 H   0  0  0  0  0  0  0  0  0  0  0  0
    2.8727   -5.6991   34.3865 H   0  0  0  0  0  0  0  0  0  0  0  0
   -1.6157   -6.2868   31.5254 H   0  0  0  0  0  0  0  0  0  0  0  0
    3.1780   -0.0611   27.4418 H   0  0  0  0  0  0  0  0  0  0  0  0
    2.6494   -2.4529   28.4279 H   0  0  0  0  0  0  0  0  0  0  0  0
    0.5064   -3.5122   29.8838 H   0  0  0  0  0  0  0  0  0  0  0  0
  1  2  1  0
  2  3  1  0
  3  4  1  0
  4  5  2  0
  5  6  1  0
  6  7  2  0
  7  8  1  0
  8  9  2  0
  2 10  1  0
 10 11  2  0
 10 12  1  0
 12 13  1  0
 13 14  2  0
 14 15  1  0
 15 16  2  0
 16 17  1  0
 17 18  2  0
 18 19  1  0
 19 20  1  0
 20 21  1  0
 21 22  1  0
 22 23  2  0
 23 24  1  0
 24 25  2  0
 24 26  1  0
 26 27  1  0
 27 28  1  0
 28 29  2  0
 29 30  1  0
 30 31  1  0
  9  4  1  0
 20 12  2  0
 31 22  1  0
 19 15  1  0
 30 26  2  0
  1 32  1  0
  1 33  1  0
  1 34  1  0
  3 35  1  0
  3 36  1  0
  5 37  1  0
  6 38  1  0
  7 39  1  0
  8 40  1  0
  9 41  1  0
 13 42  1  0
 14 43  1  0
 18 44  1  0
 28 45  1  0
 29 46  1  0
 31 47  1  0
M  END
>  <Energy>  (1089) 
66.78057004437386

>  <compound_id>  (1089) 
2442

>  <target_id>  (1089) 
1

>  <reference_id>  (1089) 
198

>  <inspiration_ids>  (1089) 
[133, 198]

>  <energy_score>  (1089) 
27.361870108114772

>  <distance_score>  (1089) 
2.9848618258527315

>  <path>  (1089) 
/opt/xchem-fragalysis-2/maxwin/BulkDock/SCRATCH/505734/C2442-P198/C2442-P198.minimised.mol

>  <scratch_subdir>  (1089) 
/opt/xchem-fragalysis-2/maxwin/BulkDock/SCRATCH/505734/C2442-P198

>  <fragmenstein_runtime>  (1089) 
7.412625312805176

>  <fragmenstein_outcome>  (1089) 
too moved

>  <fragmenstein_mode>  (1089) 
expansion

>  <fragmenstein_error>  (1089) 


$$$$
C3882-P133
     RDKit          3D

 59 62  0  0  0  0  0  0  0  0999 V2000
   -0.8937   -3.7597   35.8017 C   0  0  0  0  0  0  0  0  0  0  0  0
    0.2410   -3.5835   34.8177 N   0  0  0  0  0  0  0  0  0  0  0  0
   -0.8282   -4.0067   33.8422 C   0  0  0  0  0  0  0  0  0  0  0  0
   -0.2372   -4.1089   32.4334 C   0  0  0  0  0  0  0  0  0  0  0  0
   -0.7835   -3.3484   31.3870 C   0  0  0  0  0  0  0  0  0  0  0  0
   -0.2806   -3.4561   30.0907 C   0  0  0  0  0  0  0  0  0  0  0  0
    0.7799   -4.3169   29.8271 C   0  0  0  0  0  0  0  0  0  0  0  0
    1.3284   -5.0804   30.8546 C   0  0  0  0  0  0  0  0  0  0  0  0
    0.8191   -4.9862   32.1511 C   0  0  0  0  0  0  0  0  0  0  0  0
    0.8726   -2.3182   35.0173 C   0  0  0  0  0  0  0  0  0  0  0  0
    0.6504   -1.2452   34.5196 O   0  0  0  0  0  0  0  0  0  0  0  0
    2.0143   -2.4733   36.0058 C   0  0  0  0  0  0  0  0  0  0  0  0
    3.2513   -2.7252   35.3137 N   0  0  0  0  0  0  0  0  0  0  0  0
    3.9230   -3.9078   35.2972 C   0  0  0  0  0  0  0  0  0  0  0  0
    5.0420   -3.7654   34.6295 N   0  0  0  0  0  0  0  0  0  0  0  0
    5.0983   -2.4586   34.1977 N   0  0  0  0  0  0  0  0  0  0  0  0
    4.0119   -1.8362   34.6050 C   0  0  0  0  0  0  0  0  0  0  0  0
    3.6545   -0.5419   34.4562 N   0  0  0  0  0  0  0  0  0  0  0  0
    4.3584    0.2348   33.4584 C   0  0  0  0  0  0  0  0  0  0  0  0
    4.1819    1.6532   33.6400 N   0  0  0  0  0  0  0  0  0  0  0  0
    4.8273    2.3584   34.4602 C   0  0  0  0  0  0  0  0  0  0  0  0
    4.4871    3.8797   34.4937 C   0  0  0  0  0  0  0  0  0  0  0  0
    4.6932    4.6397   32.8617 S   0  0  0  0  0  0  0  0  0  0  0  0
    2.8305    4.0885   35.1100 Cl  0  0  0  0  0  0  0  0  0  0  0  0
    5.8732    2.0062   35.3885 N   0  0  0  0  0  0  0  0  0  0  0  0
    6.6373    0.6605   35.6104 C   0  0  0  0  0  0  0  0  0  0  0  0
    7.9109    0.8186   36.4912 C   0  0  0  0  0  0  0  0  0  0  0  0
    7.4480    1.2092   37.8415 C   0  0  0  0  0  0  0  0  0  0  0  0
    8.3763    1.2415   39.2480 S   0  0  0  0  0  0  0  0  0  0  0  0
    7.0270    1.7890   40.1619 C   0  0  0  0  0  0  0  0  0  0  0  0
    5.8944    1.9374   39.3840 C   0  0  0  0  0  0  0  0  0  0  0  0
    6.1476    1.5981   38.0260 C   0  0  0  0  0  0  0  0  0  0  0  0
    5.2336    1.6003   36.8322 C   0  0  0  0  0  0  0  0  0  0  0  0
   -1.6953   -3.0100   35.7149 H   0  0  0  0  0  0  0  0  0  0  0  0
   -0.4616   -3.5320   36.7878 H   0  0  0  0  0  0  0  0  0  0  0  0
   -1.2428   -4.7954   35.9253 H   0  0  0  0  0  0  0  0  0  0  0  0
   -1.2116   -5.0246   34.0130 H   0  0  0  0  0  0  0  0  0  0  0  0
   -1.6158   -3.2432   33.7546 H   0  0  0  0  0  0  0  0  0  0  0  0
   -1.5964   -2.6485   31.5724 H   0  0  0  0  0  0  0  0  0  0  0  0
   -0.7100   -2.8592   29.2869 H   0  0  0  0  0  0  0  0  0  0  0  0
    1.1839   -4.3763   28.8210 H   0  0  0  0  0  0  0  0  0  0  0  0
    2.1691   -5.7315   30.6475 H   0  0  0  0  0  0  0  0  0  0  0  0
    1.2626   -5.5796   32.9462 H   0  0  0  0  0  0  0  0  0  0  0  0
    1.8333   -3.2936   36.7080 H   0  0  0  0  0  0  0  0  0  0  0  0
    2.1189   -1.5564   36.5957 H   0  0  0  0  0  0  0  0  0  0  0  0
    3.5742   -4.8123   35.7738 H   0  0  0  0  0  0  0  0  0  0  0  0
    2.6579   -0.3155   34.4221 H   0  0  0  0  0  0  0  0  0  0  0  0
    5.4176   -0.0245   33.3829 H   0  0  0  0  0  0  0  0  0  0  0  0
    3.9430   -0.0224   32.4756 H   0  0  0  0  0  0  0  0  0  0  0  0
    5.1592    4.3855   35.1935 H   0  0  0  0  0  0  0  0  0  0  0  0
    5.8377    4.0088   32.5670 H   0  0  0  0  0  0  0  0  0  0  0  0
    6.0421   -0.2294   35.8615 H   0  0  0  0  0  0  0  0  0  0  0  0
    7.0436    0.4279   34.6171 H   0  0  0  0  0  0  0  0  0  0  0  0
    8.4618   -0.1276   36.5156 H   0  0  0  0  0  0  0  0  0  0  0  0
    8.5636    1.5941   36.0744 H   0  0  0  0  0  0  0  0  0  0  0  0
    7.1342    1.9759   41.2218 H   0  0  0  0  0  0  0  0  0  0  0  0
    4.9436    2.2760   39.7779 H   0  0  0  0  0  0  0  0  0  0  0  0
    4.5885    0.7107   36.7753 H   0  0  0  0  0  0  0  0  0  0  0  0
    4.5249    2.4181   37.0277 H   0  0  0  0  0  0  0  0  0  0  0  0
  1  2  1  0
  2  3  1  0
  3  4  1  0
  4  5  2  0
  5  6  1  0
  6  7  2  0
  7  8  1  0
  8  9  2  0
  2 10  1  0
 10 11  2  0
 10 12  1  0
 12 13  1  0
 13 14  1  0
 14 15  2  0
 15 16  1  0
 16 17  2  0
 17 18  1  0
 18 19  1  0
 19 20  1  0
 20 21  2  3
 21 22  1  0
 22 23  1  0
 22 24  1  0
 21 25  1  0
 25 26  1  0
 26 27  1  0
 27 28  1  0
 28 29  1  0
 29 30  1  0
 30 31  2  0
 31 32  1  0
 32 33  1  0
  9  4  1  0
 17 13  1  0
 33 25  1  0
 32 28  2  0
  1 34  1  0
  1 35  1  0
  1 36  1  0
  3 37  1  0
  3 38  1  0
  5 39  1  0
  6 40  1  0
  7 41  1  0
  8 42  1  0
  9 43  1  0
 12 44  1  0
 12 45  1  0
 14 46  1  0
 18 47  1  0
 19 48  1  0
 19 49  1  0
 22 50  1  0
 23 51  1  0
 26 52  1  0
 26 53  1  0
 27 54  1  0
 27 55  1  0
 30 56  1  0
 31 57  1  0
 33 58  1  0
 33 59  1  0
M  END
>  <Energy>  (1090) 
130.07345531392113

>  <compound_id>  (1090) 
3882

>  <target_id>  (1090) 
1

>  <reference_id>  (1090) 
133

>  <inspiration_ids>  (1090) 
[133, 200]

>  <energy_score>  (1090) 
46.63111096707189

>  <distance_score>  (1090) 
2.7014102094041403

>  <path>  (1090) 
/opt/xchem-fragalysis-2/maxwin/BulkDock/SCRATCH/505734/C3882-P133/C3882-P133.minimised.mol

>  <scratch_subdir>  (1090) 
/opt/xchem-fragalysis-2/maxwin/BulkDock/SCRATCH/505734/C3882-P133

>  <fragmenstein_runtime>  (1090) 
13.520636081695557

>  <fragmenstein_outcome>  (1090) 
too moved

>  <fragmenstein_mode>  (1090) 
expansion

>  <fragmenstein_error>  (1090) 


$$$$
C3882-P200
     RDKit          3D

 59 62  0  0  0  0  0  0  0  0999 V2000
   -0.7631   -3.9743   35.8996 C   0  0  0  0  0  0  0  0  0  0  0  0
    0.3924   -3.8539   34.9341 N   0  0  0  0  0  0  0  0  0  0  0  0
   -0.6414   -4.3924   33.9689 C   0  0  0  0  0  0  0  0  0  0  0  0
    0.0074   -4.7618   32.6288 C   0  0  0  0  0  0  0  0  0  0  0  0
    0.6388   -3.7865   31.8458 C   0  0  0  0  0  0  0  0  0  0  0  0
    1.1722   -4.1108   30.5989 C   0  0  0  0  0  0  0  0  0  0  0  0
    1.0701   -5.4104   30.1118 C   0  0  0  0  0  0  0  0  0  0  0  0
    0.4291   -6.3893   30.8671 C   0  0  0  0  0  0  0  0  0  0  0  0
   -0.0947   -6.0699   32.1212 C   0  0  0  0  0  0  0  0  0  0  0  0
    0.9861   -2.5571   35.0383 C   0  0  0  0  0  0  0  0  0  0  0  0
    0.7500   -1.5377   34.4424 O   0  0  0  0  0  0  0  0  0  0  0  0
    2.1088   -2.5950   36.0592 C   0  0  0  0  0  0  0  0  0  0  0  0
    3.3719   -2.8879   35.4322 N   0  0  0  0  0  0  0  0  0  0  0  0
    4.1009   -4.0210   35.6242 C   0  0  0  0  0  0  0  0  0  0  0  0
    5.2457   -3.9176   34.9949 N   0  0  0  0  0  0  0  0  0  0  0  0
    5.2606   -2.6899   34.3725 N   0  0  0  0  0  0  0  0  0  0  0  0
    4.1261   -2.0741   34.6315 C   0  0  0  0  0  0  0  0  0  0  0  0
    3.7098   -0.8584   34.2297 N   0  0  0  0  0  0  0  0  0  0  0  0
    4.6959    0.1568   33.9522 C   0  0  0  0  0  0  0  0  0  0  0  0
    4.8893    1.0125   35.0975 N   0  0  0  0  0  0  0  0  0  0  0  0
    5.9457    1.4542   35.6046 C   0  0  0  0  0  0  0  0  0  0  0  0
    7.3722    1.0736   35.0332 C   0  0  0  0  0  0  0  0  0  0  0  0
    7.8699   -0.6128   35.4379 S   0  0  0  0  0  0  0  0  0  0  0  0
    7.5294    1.5047   33.3194 Cl  0  0  0  0  0  0  0  0  0  0  0  0
    6.1475    2.3000   36.7436 N   0  0  0  0  0  0  0  0  0  0  0  0
    5.1463    2.8542   37.7886 C   0  0  0  0  0  0  0  0  0  0  0  0
    5.8310    3.4533   39.0471 C   0  0  0  0  0  0  0  0  0  0  0  0
    6.5706    4.6514   38.5906 C   0  0  0  0  0  0  0  0  0  0  0  0
    7.2622    5.8351   39.5710 S   0  0  0  0  0  0  0  0  0  0  0  0
    7.8288    6.6889   38.1910 C   0  0  0  0  0  0  0  0  0  0  0  0
    7.4817    6.0622   37.0086 C   0  0  0  0  0  0  0  0  0  0  0  0
    6.7468    4.8686   37.2490 C   0  0  0  0  0  0  0  0  0  0  0  0
    6.1650    3.8691   36.2879 C   0  0  0  0  0  0  0  0  0  0  0  0
   -1.0502   -5.0080   36.1428 H   0  0  0  0  0  0  0  0  0  0  0  0
   -0.3825   -3.5997   36.8619 H   0  0  0  0  0  0  0  0  0  0  0  0
   -1.6046   -3.2947   35.6963 H   0  0  0  0  0  0  0  0  0  0  0  0
   -1.3658   -3.6091   33.6988 H   0  0  0  0  0  0  0  0  0  0  0  0
   -1.1135   -5.3353   34.2835 H   0  0  0  0  0  0  0  0  0  0  0  0
    0.7136   -2.7578   32.1925 H   0  0  0  0  0  0  0  0  0  0  0  0
    1.6615   -3.3419   30.0048 H   0  0  0  0  0  0  0  0  0  0  0  0
    1.4881   -5.6477   29.1383 H   0  0  0  0  0  0  0  0  0  0  0  0
    0.3373   -7.4018   30.4829 H   0  0  0  0  0  0  0  0  0  0  0  0
   -0.5957   -6.8475   32.6937 H   0  0  0  0  0  0  0  0  0  0  0  0
    1.9204   -3.3449   36.8346 H   0  0  0  0  0  0  0  0  0  0  0  0
    2.1834   -1.6233   36.5596 H   0  0  0  0  0  0  0  0  0  0  0  0
    3.7739   -4.8621   36.2178 H   0  0  0  0  0  0  0  0  0  0  0  0
    2.8193   -0.4711   34.5252 H   0  0  0  0  0  0  0  0  0  0  0  0
    5.6018   -0.2941   33.5467 H   0  0  0  0  0  0  0  0  0  0  0  0
    4.2990    0.7776   33.1402 H   0  0  0  0  0  0  0  0  0  0  0  0
    8.1118    1.7075   35.5334 H   0  0  0  0  0  0  0  0  0  0  0  0
    6.7879   -1.2526   34.9646 H   0  0  0  0  0  0  0  0  0  0  0  0
    4.2951    3.4446   37.4084 H   0  0  0  0  0  0  0  0  0  0  0  0
    4.6444    1.9455   38.1542 H   0  0  0  0  0  0  0  0  0  0  0  0
    5.0724    3.7122   39.7928 H   0  0  0  0  0  0  0  0  0  0  0  0
    6.5208    2.7242   39.4862 H   0  0  0  0  0  0  0  0  0  0  0  0
    8.3888    7.6054   38.3172 H   0  0  0  0  0  0  0  0  0  0  0  0
    7.7511    6.4465   36.0321 H   0  0  0  0  0  0  0  0  0  0  0  0
    5.2050    4.1860   35.8492 H   0  0  0  0  0  0  0  0  0  0  0  0
    6.8521    3.8722   35.4283 H   0  0  0  0  0  0  0  0  0  0  0  0
  1  2  1  0
  2  3  1  0
  3  4  1  0
  4  5  2  0
  5  6  1  0
  6  7  2  0
  7  8  1  0
  8  9  2  0
  2 10  1  0
 10 11  2  0
 10 12  1  0
 12 13  1  0
 13 14  1  0
 14 15  2  0
 15 16  1  0
 16 17  2  0
 17 18  1  0
 18 19  1  0
 19 20  1  0
 20 21  2  3
 21 22  1  0
 22 23  1  0
 22 24  1  0
 21 25  1  0
 25 26  1  0
 26 27  1  0
 27 28  1  0
 28 29  1  0
 29 30  1  0
 30 31  2  0
 31 32  1  0
 32 33  1  0
  9  4  1  0
 17 13  1  0
 33 25  1  0
 32 28  2  0
  1 34  1  0
  1 35  1  0
  1 36  1  0
  3 37  1  0
  3 38  1  0
  5 39  1  0
  6 40  1  0
  7 41  1  0
  8 42  1  0
  9 43  1  0
 12 44  1  0
 12 45  1  0
 14 46  1  0
 18 47  1  0
 19 48  1  0
 19 49  1  0
 22 50  1  0
 23 51  1  0
 26 52  1  0
 26 53  1  0
 27 54  1  0
 27 55  1  0
 30 56  1  0
 31 57  1  0
 33 58  1  0
 33 59  1  0
M  END
>  <Energy>  (1091) 
140.78056977787588

>  <compound_id>  (1091) 
3882

>  <target_id>  (1091) 
1

>  <reference_id>  (1091) 
200

>  <inspiration_ids>  (1091) 
[133, 200]

>  <energy_score>  (1091) 
57.33822543101894

>  <distance_score>  (1091) 
2.5074474722876308

>  <path>  (1091) 
/opt/xchem-fragalysis-2/maxwin/BulkDock/SCRATCH/505734/C3882-P200/C3882-P200.minimised.mol

>  <scratch_subdir>  (1091) 
/opt/xchem-fragalysis-2/maxwin/BulkDock/SCRATCH/505734/C3882-P200

>  <fragmenstein_runtime>  (1091) 
13.228024244308472

>  <fragmenstein_outcome>  (1091) 
too moved

>  <fragmenstein_mode>  (1091) 
expansion

>  <fragmenstein_error>  (1091) 


$$$$
C3883-P133
     RDKit          3D

 69 68  0  0  0  0  0  0  0  0999 V2000
    5.5800   -2.5610   27.0216 C   0  0  0  0  0  0  0  0  0  0  0  0
    4.6527   -3.5801   26.3770 C   0  0  0  0  0  0  0  0  0  0  0  0
    3.5240   -4.0680   27.3013 C   0  0  0  0  0  0  0  0  0  0  0  0
    4.0474   -4.9541   28.4481 C   0  0  0  0  0  0  0  0  0  0  0  0
    3.4459   -4.5481   29.7036 N   0  0  0  0  0  0  0  0  0  0  0  0
    4.1180   -3.3961   30.3087 C   0  0  0  0  0  0  0  0  0  0  0  0
    5.6752   -3.8634   31.1359 S   0  0  0  0  0  0  0  0  0  0  0  0
    5.1450   -3.8581   32.8714 C   0  0  0  0  0  0  0  0  0  0  0  0
    4.7291   -2.5259   33.2450 N   0  0  0  0  0  0  0  0  0  0  0  0
    3.9694   -2.4711   34.4896 C   0  0  0  0  0  0  0  0  0  0  0  0
    2.9401   -1.3385   34.4120 C   0  0  0  0  0  0  0  0  0  0  0  0
    2.1380   -1.2446   33.1053 C   0  0  0  0  0  0  0  0  0  0  0  0
    1.0020   -2.2499   32.8898 C   0  0  0  0  0  0  0  0  0  0  0  0
    1.2740   -3.7254   33.2108 C   0  0  0  0  0  0  0  0  0  0  0  0
    0.0280   -4.6127   32.9777 C   0  0  0  0  0  0  0  0  0  0  0  0
   -0.1125   -4.9211   31.4624 C   0  0  0  0  0  0  0  0  0  0  0  0
    0.7097   -6.0838   30.9384 C   0  0  0  0  0  0  0  0  0  0  0  0
    0.0222   -5.9348   33.8368 C   0  0  0  0  0  0  0  0  0  0  0  0
   -0.5958   -5.8150   35.2716 N   0  0  0  0  0  0  0  0  0  0  0  0
   -0.4539   -7.3023   35.1785 C   0  0  0  0  0  0  0  0  0  0  0  0
    0.1584   -4.8015   36.1127 C   0  0  0  0  0  0  0  0  0  0  0  0
   -0.5467   -3.4655   35.9980 C   0  0  0  0  0  0  0  0  0  0  0  0
    1.0836   -4.9422   36.8272 O   0  0  0  0  0  0  0  0  0  0  0  0
    3.6183   -6.3634   28.2838 N   0  0  0  0  0  0  0  0  0  0  0  0
    4.1769   -6.8963   27.0306 N   0  0  0  0  0  0  0  0  0  0  0  0
    5.6145   -7.1669   27.1566 C   0  0  0  0  0  0  0  0  0  0  0  0
    6.1477   -2.9947   27.8487 H   0  0  0  0  0  0  0  0  0  0  0  0
    5.0169   -1.7005   27.3961 H   0  0  0  0  0  0  0  0  0  0  0  0
    6.3016   -2.1921   26.2866 H   0  0  0  0  0  0  0  0  0  0  0  0
    4.2086   -3.1086   25.4979 H   0  0  0  0  0  0  0  0  0  0  0  0
    5.2417   -4.4249   26.0076 H   0  0  0  0  0  0  0  0  0  0  0  0
    2.7962   -4.6136   26.6919 H   0  0  0  0  0  0  0  0  0  0  0  0
    2.9843   -3.1905   27.6804 H   0  0  0  0  0  0  0  0  0  0  0  0
    5.1369   -4.9261   28.5290 H   0  0  0  0  0  0  0  0  0  0  0  0
    3.5830   -5.3073   30.3514 H   0  0  0  0  0  0  0  0  0  0  0  0
    3.4271   -2.9577   31.0259 H   0  0  0  0  0  0  0  0  0  0  0  0
    4.3255   -2.6111   29.5772 H   0  0  0  0  0  0  0  0  0  0  0  0
    5.9807   -4.1898   33.4958 H   0  0  0  0  0  0  0  0  0  0  0  0
    4.3420   -4.5947   32.9711 H   0  0  0  0  0  0  0  0  0  0  0  0
    5.5366   -1.9062   33.2836 H   0  0  0  0  0  0  0  0  0  0  0  0
    3.4834   -3.4225   34.7121 H   0  0  0  0  0  0  0  0  0  0  0  0
    4.6523   -2.2892   35.3281 H   0  0  0  0  0  0  0  0  0  0  0  0
    3.4806   -0.3895   34.5301 H   0  0  0  0  0  0  0  0  0  0  0  0
    2.2565   -1.4072   35.2660 H   0  0  0  0  0  0  0  0  0  0  0  0
    2.8062   -1.2535   32.2397 H   0  0  0  0  0  0  0  0  0  0  0  0
    1.6784   -0.2465   33.0808 H   0  0  0  0  0  0  0  0  0  0  0  0
    0.6683   -2.1490   31.8509 H   0  0  0  0  0  0  0  0  0  0  0  0
    0.1531   -1.9188   33.5015 H   0  0  0  0  0  0  0  0  0  0  0  0
    2.1121   -4.0928   32.6147 H   0  0  0  0  0  0  0  0  0  0  0  0
    1.5641   -3.8074   34.2546 H   0  0  0  0  0  0  0  0  0  0  0  0
   -0.8666   -4.0403   33.2463 H   0  0  0  0  0  0  0  0  0  0  0  0
   -1.1640   -5.1492   31.2767 H   0  0  0  0  0  0  0  0  0  0  0  0
    0.1093   -4.0297   30.8665 H   0  0  0  0  0  0  0  0  0  0  0  0
    0.7454   -6.0573   29.8468 H   0  0  0  0  0  0  0  0  0  0  0  0
    1.7303   -6.0477   31.3223 H   0  0  0  0  0  0  0  0  0  0  0  0
    0.2741   -7.0466   31.2223 H   0  0  0  0  0  0  0  0  0  0  0  0
    1.0781   -6.2489   33.8891 H   0  0  0  0  0  0  0  0  0  0  0  0
   -0.5880   -6.6051   33.2109 H   0  0  0  0  0  0  0  0  0  0  0  0
   -0.7540   -7.6306   36.1848 H   0  0  0  0  0  0  0  0  0  0  0  0
    0.5742   -7.6890   35.1196 H   0  0  0  0  0  0  0  0  0  0  0  0
   -1.1941   -7.7943   34.5321 H   0  0  0  0  0  0  0  0  0  0  0  0
    0.1798   -2.6811   35.7803 H   0  0  0  0  0  0  0  0  0  0  0  0
   -1.3301   -3.4581   35.2418 H   0  0  0  0  0  0  0  0  0  0  0  0
   -1.0189   -3.2487   36.9616 H   0  0  0  0  0  0  0  0  0  0  0  0
    2.5985   -6.2795   28.2070 H   0  0  0  0  0  0  0  0  0  0  0  0
    3.7065   -7.7316   26.6813 H   0  0  0  0  0  0  0  0  0  0  0  0
    6.2055   -6.2477   27.1913 H   0  0  0  0  0  0  0  0  0  0  0  0
    5.8472   -7.7670   28.0410 H   0  0  0  0  0  0  0  0  0  0  0  0
    5.9506   -7.7194   26.2731 H   0  0  0  0  0  0  0  0  0  0  0  0
  1  2  1  0
  2  3  1  0
  3  4  1  0
  4  5  1  0
  5  6  1  0
  6  7  1  0
  7  8  1  0
  8  9  1  0
  9 10  1  0
 10 11  1  0
 11 12  1  0
 12 13  1  0
 13 14  1  0
 14 15  1  0
 15 16  1  0
 16 17  1  0
 15 18  1  0
 18 19  1  0
 19 20  1  0
 19 21  1  0
 21 22  1  0
 21 23  2  0
  4 24  1  0
 24 25  1  0
 25 26  1  0
  1 27  1  0
  1 28  1  0
  1 29  1  0
  2 30  1  0
  2 31  1  0
  3 32  1  0
  3 33  1  0
  4 34  1  0
  5 35  1  0
  6 36  1  0
  6 37  1  0
  8 38  1  0
  8 39  1  0
  9 40  1  0
 10 41  1  0
 10 42  1  0
 11 43  1  0
 11 44  1  0
 12 45  1  0
 12 46  1  0
 13 47  1  0
 13 48  1  0
 14 49  1  0
 14 50  1  0
 15 51  1  0
 16 52  1  0
 16 53  1  0
 17 54  1  0
 17 55  1  0
 17 56  1  0
 18 57  1  0
 18 58  1  0
 20 59  1  0
 20 60  1  0
 20 61  1  0
 22 62  1  0
 22 63  1  0
 22 64  1  0
 24 65  1  0
 25 66  1  0
 26 67  1  0
 26 68  1  0
 26 69  1  0
M  END
>  <Energy>  (1092) 
56.740422899261731

>  <compound_id>  (1092) 
3883

>  <target_id>  (1092) 
1

>  <reference_id>  (1092) 
133

>  <inspiration_ids>  (1092) 
[133, 201]

>  <energy_score>  (1092) 
20.959684007720398

>  <distance_score>  (1092) 
2.65644311735186

>  <path>  (1092) 
/opt/xchem-fragalysis-2/maxwin/BulkDock/SCRATCH/505734/C3883-P133/C3883-P133.minimised.mol

>  <scratch_subdir>  (1092) 
/opt/xchem-fragalysis-2/maxwin/BulkDock/SCRATCH/505734/C3883-P133

>  <fragmenstein_runtime>  (1092) 
87.09229397773743

>  <fragmenstein_outcome>  (1092) 
too moved

>  <fragmenstein_mode>  (1092) 
expansion

>  <fragmenstein_error>  (1092) 


$$$$
C3883-P201
     RDKit          3D

 69 68  0  0  0  0  0  0  0  0999 V2000
    3.8439   -3.4248   26.2835 C   0  0  0  0  0  0  0  0  0  0  0  0
    2.9484   -4.4067   27.0249 C   0  0  0  0  0  0  0  0  0  0  0  0
    3.4144   -4.6696   28.4583 C   0  0  0  0  0  0  0  0  0  0  0  0
    4.8486   -5.2267   28.5902 C   0  0  0  0  0  0  0  0  0  0  0  0
    5.3290   -5.0388   29.9573 N   0  0  0  0  0  0  0  0  0  0  0  0
    5.8789   -3.6918   30.1195 C   0  0  0  0  0  0  0  0  0  0  0  0
    6.4226   -3.4425   31.8245 S   0  0  0  0  0  0  0  0  0  0  0  0
    4.8013   -3.1985   32.5956 C   0  0  0  0  0  0  0  0  0  0  0  0
    4.9474   -2.2278   33.6666 N   0  0  0  0  0  0  0  0  0  0  0  0
    3.7762   -2.1226   34.5351 C   0  0  0  0  0  0  0  0  0  0  0  0
    2.7704   -1.0490   34.1008 C   0  0  0  0  0  0  0  0  0  0  0  0
    1.7692   -1.4073   32.9944 C   0  0  0  0  0  0  0  0  0  0  0  0
    0.7918   -2.5294   33.3801 C   0  0  0  0  0  0  0  0  0  0  0  0
    1.1762   -3.8687   32.7470 C   0  0  0  0  0  0  0  0  0  0  0  0
    0.4560   -5.1305   33.3100 C   0  0  0  0  0  0  0  0  0  0  0  0
    0.9082   -6.3442   32.4677 C   0  0  0  0  0  0  0  0  0  0  0  0
    0.3411   -6.3445   31.0484 C   0  0  0  0  0  0  0  0  0  0  0  0
    0.6755   -5.2055   34.8793 C   0  0  0  0  0  0  0  0  0  0  0  0
    0.9225   -6.4318   35.7585 N   0  0  0  0  0  0  0  0  0  0  0  0
   -0.5082   -6.6919   35.4248 C   0  0  0  0  0  0  0  0  0  0  0  0
    2.1134   -7.1025   35.3462 C   0  0  0  0  0  0  0  0  0  0  0  0
    3.2967   -6.5345   36.1012 C   0  0  0  0  0  0  0  0  0  0  0  0
    2.2766   -7.9933   34.5525 O   0  0  0  0  0  0  0  0  0  0  0  0
    4.8719   -6.6808   28.3393 N   0  0  0  0  0  0  0  0  0  0  0  0
    4.9138   -6.9325   26.8987 N   0  0  0  0  0  0  0  0  0  0  0  0
    6.2955   -7.0147   26.4157 C   0  0  0  0  0  0  0  0  0  0  0  0
    3.4134   -3.1806   25.3124 H   0  0  0  0  0  0  0  0  0  0  0  0
    3.9597   -2.4934   26.8465 H   0  0  0  0  0  0  0  0  0  0  0  0
    4.8362   -3.8406   26.0898 H   0  0  0  0  0  0  0  0  0  0  0  0
    1.9386   -3.9862   27.0766 H   0  0  0  0  0  0  0  0  0  0  0  0
    2.8638   -5.3381   26.4578 H   0  0  0  0  0  0  0  0  0  0  0  0
    2.7039   -5.3537   28.9415 H   0  0  0  0  0  0  0  0  0  0  0  0
    3.3197   -3.7230   29.0050 H   0  0  0  0  0  0  0  0  0  0  0  0
    5.5454   -4.7232   27.9127 H   0  0  0  0  0  0  0  0  0  0  0  0
    6.1122   -5.6614   30.1312 H   0  0  0  0  0  0  0  0  0  0  0  0
    5.1710   -2.9026   29.8499 H   0  0  0  0  0  0  0  0  0  0  0  0
    6.7620   -3.5693   29.4821 H   0  0  0  0  0  0  0  0  0  0  0  0
    4.4809   -4.1719   32.9790 H   0  0  0  0  0  0  0  0  0  0  0  0
    4.0858   -2.8414   31.8539 H   0  0  0  0  0  0  0  0  0  0  0  0
    5.7537   -2.5242   34.2166 H   0  0  0  0  0  0  0  0  0  0  0  0
    3.3024   -3.0918   34.7138 H   0  0  0  0  0  0  0  0  0  0  0  0
    4.1553   -1.8052   35.5155 H   0  0  0  0  0  0  0  0  0  0  0  0
    3.3178   -0.1476   33.7949 H   0  0  0  0  0  0  0  0  0  0  0  0
    2.1955   -0.7519   34.9885 H   0  0  0  0  0  0  0  0  0  0  0  0
    2.2795   -1.6240   32.0516 H   0  0  0  0  0  0  0  0  0  0  0  0
    1.1734   -0.5040   32.8072 H   0  0  0  0  0  0  0  0  0  0  0  0
   -0.2109   -2.2667   33.0199 H   0  0  0  0  0  0  0  0  0  0  0  0
    0.7186   -2.5906   34.4692 H   0  0  0  0  0  0  0  0  0  0  0  0
    0.9916   -3.7794   31.6709 H   0  0  0  0  0  0  0  0  0  0  0  0
    2.2499   -4.0300   32.8559 H   0  0  0  0  0  0  0  0  0  0  0  0
   -0.6230   -4.9960   33.1525 H   0  0  0  0  0  0  0  0  0  0  0  0
    2.0022   -6.3786   32.4169 H   0  0  0  0  0  0  0  0  0  0  0  0
    0.5771   -7.2806   32.9189 H   0  0  0  0  0  0  0  0  0  0  0  0
    0.7425   -5.5282   30.4436 H   0  0  0  0  0  0  0  0  0  0  0  0
   -0.7503   -6.2622   31.0636 H   0  0  0  0  0  0  0  0  0  0  0  0
    0.5971   -7.2813   30.5428 H   0  0  0  0  0  0  0  0  0  0  0  0
   -0.0058   -4.5002   35.3894 H   0  0  0  0  0  0  0  0  0  0  0  0
    1.6356   -4.6860   35.0220 H   0  0  0  0  0  0  0  0  0  0  0  0
   -0.7106   -7.6300   35.9640 H   0  0  0  0  0  0  0  0  0  0  0  0
   -1.2179   -5.9857   35.8792 H   0  0  0  0  0  0  0  0  0  0  0  0
   -0.7497   -6.9727   34.3981 H   0  0  0  0  0  0  0  0  0  0  0  0
    3.9347   -5.9858   35.4028 H   0  0  0  0  0  0  0  0  0  0  0  0
    3.8612   -7.3578   36.5482 H   0  0  0  0  0  0  0  0  0  0  0  0
    2.9851   -5.8591   36.9032 H   0  0  0  0  0  0  0  0  0  0  0  0
    5.7061   -7.0591   28.7925 H   0  0  0  0  0  0  0  0  0  0  0  0
    4.4245   -7.7899   26.6319 H   0  0  0  0  0  0  0  0  0  0  0  0
    6.8591   -6.1006   26.6265 H   0  0  0  0  0  0  0  0  0  0  0  0
    6.8198   -7.8677   26.8590 H   0  0  0  0  0  0  0  0  0  0  0  0
    6.2880   -7.1477   25.3300 H   0  0  0  0  0  0  0  0  0  0  0  0
  1  2  1  0
  2  3  1  0
  3  4  1  0
  4  5  1  0
  5  6  1  0
  6  7  1  0
  7  8  1  0
  8  9  1  0
  9 10  1  0
 10 11  1  0
 11 12  1  0
 12 13  1  0
 13 14  1  0
 14 15  1  0
 15 16  1  0
 16 17  1  0
 15 18  1  0
 18 19  1  0
 19 20  1  0
 19 21  1  0
 21 22  1  0
 21 23  2  0
  4 24  1  0
 24 25  1  0
 25 26  1  0
  1 27  1  0
  1 28  1  0
  1 29  1  0
  2 30  1  0
  2 31  1  0
  3 32  1  0
  3 33  1  0
  4 34  1  0
  5 35  1  0
  6 36  1  0
  6 37  1  0
  8 38  1  0
  8 39  1  0
  9 40  1  0
 10 41  1  0
 10 42  1  0
 11 43  1  0
 11 44  1  0
 12 45  1  0
 12 46  1  0
 13 47  1  0
 13 48  1  0
 14 49  1  0
 14 50  1  0
 15 51  1  0
 16 52  1  0
 16 53  1  0
 17 54  1  0
 17 55  1  0
 17 56  1  0
 18 57  1  0
 18 58  1  0
 20 59  1  0
 20 60  1  0
 20 61  1  0
 22 62  1  0
 22 63  1  0
 22 64  1  0
 24 65  1  0
 25 66  1  0
 26 67  1  0
 26 68  1  0
 26 69  1  0
M  END
>  <Energy>  (1093) 
47.151414377067653

>  <compound_id>  (1093) 
3883

>  <target_id>  (1093) 
1

>  <reference_id>  (1093) 
201

>  <inspiration_ids>  (1093) 
[133, 201]

>  <energy_score>  (1093) 
24.34483682706994

>  <distance_score>  (1093) 
2.68748310355996

>  <path>  (1093) 
/opt/xchem-fragalysis-2/maxwin/BulkDock/SCRATCH/505734/C3883-P201/C3883-P201.minimised.mol

>  <scratch_subdir>  (1093) 
/opt/xchem-fragalysis-2/maxwin/BulkDock/SCRATCH/505734/C3883-P201

>  <fragmenstein_runtime>  (1093) 
81.6290512084961

>  <fragmenstein_outcome>  (1093) 
too moved

>  <fragmenstein_mode>  (1093) 
expansion

>  <fragmenstein_error>  (1093) 


$$$$
C3884-P133
     RDKit          3D

 42 44  0  0  0  0  0  0  0  0999 V2000
    0.7233   -3.7974   37.0424 C   0  0  0  0  0  0  0  0  0  0  0  0
    0.7801   -3.2881   35.6436 N   0  0  0  0  0  0  0  0  0  0  0  0
   -0.0109   -4.6153   35.3694 C   0  0  0  0  0  0  0  0  0  0  0  0
   -0.2246   -4.9489   33.8887 C   0  0  0  0  0  0  0  0  0  0  0  0
    0.3620   -6.1012   33.3413 C   0  0  0  0  0  0  0  0  0  0  0  0
    0.2617   -6.3630   31.9799 C   0  0  0  0  0  0  0  0  0  0  0  0
   -0.3763   -5.4554   31.1454 C   0  0  0  0  0  0  0  0  0  0  0  0
   -0.9922   -4.3285   31.6774 C   0  0  0  0  0  0  0  0  0  0  0  0
   -0.9705   -4.1107   33.0515 C   0  0  0  0  0  0  0  0  0  0  0  0
    1.9187   -3.1711   34.7127 C   0  0  0  0  0  0  0  0  0  0  0  0
    3.0346   -3.5345   34.8243 O   0  0  0  0  0  0  0  0  0  0  0  0
    1.2734   -2.3838   33.6527 N   0  0  0  0  0  0  0  0  0  0  0  0
    1.7558   -1.9270   32.4556 C   0  0  0  0  0  0  0  0  0  0  0  0
    2.9887   -2.3020   32.0536 C   0  0  0  0  0  0  0  0  0  0  0  0
    3.0633   -3.3979   31.0771 C   0  0  0  0  0  0  0  0  0  0  0  0
    2.3664   -3.4404   29.9201 C   0  0  0  0  0  0  0  0  0  0  0  0
    2.7050   -4.8238   28.8965 S   0  0  0  0  0  0  0  0  0  0  0  0
    2.4498   -4.5189   27.5024 O   0  0  0  0  0  0  0  0  0  0  0  0
    2.1797   -6.0455   29.4729 O   0  0  0  0  0  0  0  0  0  0  0  0
    4.2877   -5.0160   28.9664 F   0  0  0  0  0  0  0  0  0  0  0  0
    1.4193   -2.4292   29.4446 C   0  0  0  0  0  0  0  0  0  0  0  0
    0.7963   -1.5019   30.1950 C   0  0  0  0  0  0  0  0  0  0  0  0
   -0.1995   -0.6472   29.7452 N   0  0  0  0  0  0  0  0  0  0  0  0
   -0.8337   -0.0160   30.8095 N   0  0  0  0  0  0  0  0  0  0  0  0
   -0.1178   -0.3949   31.8405 C   0  0  0  0  0  0  0  0  0  0  0  0
    0.9133   -1.2636   31.5672 N   0  0  0  0  0  0  0  0  0  0  0  0
    1.2006   -2.9896   37.6164 H   0  0  0  0  0  0  0  0  0  0  0  0
   -0.2792   -3.8700   37.4865 H   0  0  0  0  0  0  0  0  0  0  0  0
    1.3892   -4.6494   37.2420 H   0  0  0  0  0  0  0  0  0  0  0  0
    0.5044   -5.5078   35.7624 H   0  0  0  0  0  0  0  0  0  0  0  0
   -1.0294   -4.5411   35.7839 H   0  0  0  0  0  0  0  0  0  0  0  0
    0.9157   -6.7929   33.9711 H   0  0  0  0  0  0  0  0  0  0  0  0
    0.7091   -7.2541   31.5547 H   0  0  0  0  0  0  0  0  0  0  0  0
   -0.3972   -5.6367   30.0743 H   0  0  0  0  0  0  0  0  0  0  0  0
   -1.4964   -3.6202   31.0236 H   0  0  0  0  0  0  0  0  0  0  0  0
   -1.4951   -3.2505   33.4619 H   0  0  0  0  0  0  0  0  0  0  0  0
    0.3240   -2.1853   33.9203 H   0  0  0  0  0  0  0  0  0  0  0  0
    3.5429   -1.5049   31.5356 H   0  0  0  0  0  0  0  0  0  0  0  0
    3.7489   -4.1923   31.3679 H   0  0  0  0  0  0  0  0  0  0  0  0
    1.1616   -2.4761   28.3872 H   0  0  0  0  0  0  0  0  0  0  0  0
   -0.6847   -0.8298   28.8678 H   0  0  0  0  0  0  0  0  0  0  0  0
   -0.2794   -0.0928   32.8859 H   0  0  0  0  0  0  0  0  0  0  0  0
  1  2  1  0
  2  3  1  0
  3  4  1  0
  4  5  2  0
  5  6  1  0
  6  7  2  0
  7  8  1  0
  8  9  2  0
  2 10  1  0
 10 11  2  0
 10 12  1  0
 12 13  1  0
 13 14  2  0
 14 15  1  0
 15 16  2  0
 16 17  1  0
 17 18  2  0
 17 19  2  0
 17 20  1  0
 16 21  1  0
 21 22  2  0
 22 23  1  0
 23 24  1  0
 24 25  2  0
 25 26  1  0
  9  4  1  0
 26 13  1  0
 26 22  1  0
  1 27  1  0
  1 28  1  0
  1 29  1  0
  3 30  1  0
  3 31  1  0
  5 32  1  0
  6 33  1  0
  7 34  1  0
  8 35  1  0
  9 36  1  0
 12 37  1  0
 14 38  1  0
 15 39  1  0
 21 40  1  0
 23 41  1  0
 25 42  1  0
M  END
>  <Energy>  (1094) 
152.98850043480024

>  <compound_id>  (1094) 
3884

>  <target_id>  (1094) 
1

>  <reference_id>  (1094) 
133

>  <inspiration_ids>  (1094) 
[133, 202]

>  <energy_score>  (1094) 
67.50318717394941

>  <distance_score>  (1094) 
3.0379201058362626

>  <path>  (1094) 
/opt/xchem-fragalysis-2/maxwin/BulkDock/SCRATCH/505734/C3884-P133/C3884-P133.minimised.mol

>  <scratch_subdir>  (1094) 
/opt/xchem-fragalysis-2/maxwin/BulkDock/SCRATCH/505734/C3884-P133

>  <fragmenstein_runtime>  (1094) 
39.837684631347656

>  <fragmenstein_outcome>  (1094) 
too moved

>  <fragmenstein_mode>  (1094) 
expansion

>  <fragmenstein_error>  (1094) 


$$$$
C3884-P202
     RDKit          3D

 42 44  0  0  0  0  0  0  0  0999 V2000
   -0.8740   -3.0079   37.5587 C   0  0  0  0  0  0  0  0  0  0  0  0
   -0.9886   -3.0644   36.0791 N   0  0  0  0  0  0  0  0  0  0  0  0
    0.1336   -4.1153   36.2539 C   0  0  0  0  0  0  0  0  0  0  0  0
    0.1508   -5.1410   35.1187 C   0  0  0  0  0  0  0  0  0  0  0  0
    1.2123   -5.1942   34.2090 C   0  0  0  0  0  0  0  0  0  0  0  0
    1.2398   -6.1729   33.2176 C   0  0  0  0  0  0  0  0  0  0  0  0
    0.1912   -7.0785   33.0934 C   0  0  0  0  0  0  0  0  0  0  0  0
   -0.8562   -7.0502   34.0050 C   0  0  0  0  0  0  0  0  0  0  0  0
   -0.8686   -6.0956   35.0212 C   0  0  0  0  0  0  0  0  0  0  0  0
   -0.6052   -2.0785   35.0521 C   0  0  0  0  0  0  0  0  0  0  0  0
   -0.0382   -1.0535   35.1588 O   0  0  0  0  0  0  0  0  0  0  0  0
   -1.2223   -2.7040   33.8801 N   0  0  0  0  0  0  0  0  0  0  0  0
   -1.2382   -2.3225   32.5645 C   0  0  0  0  0  0  0  0  0  0  0  0
   -1.7618   -3.2300   31.7082 C   0  0  0  0  0  0  0  0  0  0  0  0
   -0.7602   -4.1275   31.1228 C   0  0  0  0  0  0  0  0  0  0  0  0
    0.2789   -3.6684   30.3937 C   0  0  0  0  0  0  0  0  0  0  0  0
    1.4506   -4.8583   29.8751 S   0  0  0  0  0  0  0  0  0  0  0  0
    0.8685   -6.1873   29.8069 O   0  0  0  0  0  0  0  0  0  0  0  0
    2.6947   -4.6705   30.5950 O   0  0  0  0  0  0  0  0  0  0  0  0
    1.7999   -4.4835   28.3658 F   0  0  0  0  0  0  0  0  0  0  0  0
    0.4965   -2.2572   30.0512 C   0  0  0  0  0  0  0  0  0  0  0  0
    0.0907   -1.2034   30.7906 C   0  0  0  0  0  0  0  0  0  0  0  0
    0.3482    0.1289   30.5183 N   0  0  0  0  0  0  0  0  0  0  0  0
   -0.0220    0.9372   31.5881 N   0  0  0  0  0  0  0  0  0  0  0  0
   -0.5893    0.0928   32.4200 C   0  0  0  0  0  0  0  0  0  0  0  0
   -0.6049   -1.2172   32.0088 N   0  0  0  0  0  0  0  0  0  0  0  0
    0.1030   -2.6823   37.9483 H   0  0  0  0  0  0  0  0  0  0  0  0
   -1.3273   -3.8712   38.0671 H   0  0  0  0  0  0  0  0  0  0  0  0
   -1.5325   -2.1702   37.8312 H   0  0  0  0  0  0  0  0  0  0  0  0
    1.1027   -3.5895   36.2489 H   0  0  0  0  0  0  0  0  0  0  0  0
    0.1015   -4.7799   37.1377 H   0  0  0  0  0  0  0  0  0  0  0  0
    2.0315   -4.4800   34.2715 H   0  0  0  0  0  0  0  0  0  0  0  0
    2.0835   -6.2184   32.5372 H   0  0  0  0  0  0  0  0  0  0  0  0
    0.1885   -7.8097   32.2905 H   0  0  0  0  0  0  0  0  0  0  0  0
   -1.6532   -7.7862   33.9344 H   0  0  0  0  0  0  0  0  0  0  0  0
   -1.6818   -6.0861   35.7402 H   0  0  0  0  0  0  0  0  0  0  0  0
   -1.6996   -3.5562   34.1690 H   0  0  0  0  0  0  0  0  0  0  0  0
   -2.2499   -2.7915   30.8245 H   0  0  0  0  0  0  0  0  0  0  0  0
   -0.8822   -5.1792   31.3628 H   0  0  0  0  0  0  0  0  0  0  0  0
    1.0558   -2.0663   29.1377 H   0  0  0  0  0  0  0  0  0  0  0  0
    1.1097    0.3968   29.9020 H   0  0  0  0  0  0  0  0  0  0  0  0
   -1.0642    0.3513   33.3769 H   0  0  0  0  0  0  0  0  0  0  0  0
  1  2  1  0
  2  3  1  0
  3  4  1  0
  4  5  2  0
  5  6  1  0
  6  7  2  0
  7  8  1  0
  8  9  2  0
  2 10  1  0
 10 11  2  0
 10 12  1  0
 12 13  1  0
 13 14  2  0
 14 15  1  0
 15 16  2  0
 16 17  1  0
 17 18  2  0
 17 19  2  0
 17 20  1  0
 16 21  1  0
 21 22  2  0
 22 23  1  0
 23 24  1  0
 24 25  2  0
 25 26  1  0
  9  4  1  0
 26 13  1  0
 26 22  1  0
  1 27  1  0
  1 28  1  0
  1 29  1  0
  3 30  1  0
  3 31  1  0
  5 32  1  0
  6 33  1  0
  7 34  1  0
  8 35  1  0
  9 36  1  0
 12 37  1  0
 14 38  1  0
 15 39  1  0
 21 40  1  0
 23 41  1  0
 25 42  1  0
M  END
>  <Energy>  (1095) 
145.97357849596966

>  <compound_id>  (1095) 
3884

>  <target_id>  (1095) 
1

>  <reference_id>  (1095) 
202

>  <inspiration_ids>  (1095) 
[133, 202]

>  <energy_score>  (1095) 
60.48826523511951

>  <distance_score>  (1095) 
3.398054379306756

>  <path>  (1095) 
/opt/xchem-fragalysis-2/maxwin/BulkDock/SCRATCH/505734/C3884-P202/C3884-P202.minimised.mol

>  <scratch_subdir>  (1095) 
/opt/xchem-fragalysis-2/maxwin/BulkDock/SCRATCH/505734/C3884-P202

>  <fragmenstein_runtime>  (1095) 
37.78692317008972

>  <fragmenstein_outcome>  (1095) 
too moved

>  <fragmenstein_mode>  (1095) 
expansion

>  <fragmenstein_error>  (1095) 


$$$$
C3885-P134
     RDKit          3D

 37 39  0  0  0  0  0  0  0  0999 V2000
    1.6410   -2.9710   30.2987 C   0  0  0  0  0  0  0  0  0  0  0  0
    0.2200   -3.0188   29.9462 N   0  0  0  0  0  0  0  0  0  0  0  0
   -0.0395   -2.4531   28.6238 C   0  0  0  0  0  0  0  0  0  0  0  0
   -0.1821   -0.9590   28.4518 C   0  0  0  0  0  0  0  0  0  0  0  0
   -1.3669   -0.4482   27.8999 C   0  0  0  0  0  0  0  0  0  0  0  0
   -1.5089    0.9128   27.6209 C   0  0  0  0  0  0  0  0  0  0  0  0
   -0.4695    1.7906   27.8976 C   0  0  0  0  0  0  0  0  0  0  0  0
    0.7212    1.3011   28.4258 C   0  0  0  0  0  0  0  0  0  0  0  0
    0.8694   -0.0648   28.6878 C   0  0  0  0  0  0  0  0  0  0  0  0
   -0.7089   -2.7793   31.0519 C   0  0  0  0  0  0  0  0  0  0  0  0
   -2.0634   -2.9661   30.6311 O   0  0  0  0  0  0  0  0  0  0  0  0
   -0.6415   -1.3298   31.6257 C   0  0  0  0  0  0  0  0  0  0  0  0
   -0.9635   -1.2704   33.1165 C   0  0  0  0  0  0  0  0  0  0  0  0
   -0.0721   -2.2345   33.8071 C   0  0  0  0  0  0  0  0  0  0  0  0
    0.7235   -2.0957   34.8409 N   0  0  0  0  0  0  0  0  0  0  0  0
    1.3670   -3.3063   35.0388 N   0  0  0  0  0  0  0  0  0  0  0  0
    0.9643   -4.1364   34.1012 C   0  0  0  0  0  0  0  0  0  0  0  0
    0.0890   -3.4887   33.3059 N   0  0  0  0  0  0  0  0  0  0  0  0
   -0.5404   -3.9250   32.1007 C   0  0  0  0  0  0  0  0  0  0  0  0
    2.2670   -3.2763   29.4518 H   0  0  0  0  0  0  0  0  0  0  0  0
    1.9763   -1.9827   30.6207 H   0  0  0  0  0  0  0  0  0  0  0  0
    1.8869   -3.6778   31.0964 H   0  0  0  0  0  0  0  0  0  0  0  0
    0.7579   -2.7781   27.9483 H   0  0  0  0  0  0  0  0  0  0  0  0
   -0.9319   -2.9506   28.2317 H   0  0  0  0  0  0  0  0  0  0  0  0
   -2.1719   -1.1249   27.6189 H   0  0  0  0  0  0  0  0  0  0  0  0
   -2.4237    1.2888   27.1690 H   0  0  0  0  0  0  0  0  0  0  0  0
   -0.5823    2.8513   27.6870 H   0  0  0  0  0  0  0  0  0  0  0  0
    1.5458    1.9829   28.6193 H   0  0  0  0  0  0  0  0  0  0  0  0
    1.8291   -0.4182   29.0508 H   0  0  0  0  0  0  0  0  0  0  0  0
   -2.1622   -2.4227   29.8306 H   0  0  0  0  0  0  0  0  0  0  0  0
   -1.3329   -0.6650   31.0935 H   0  0  0  0  0  0  0  0  0  0  0  0
    0.3609   -0.9052   31.5036 H   0  0  0  0  0  0  0  0  0  0  0  0
   -2.0123   -1.5322   33.2971 H   0  0  0  0  0  0  0  0  0  0  0  0
   -0.8011   -0.2572   33.4988 H   0  0  0  0  0  0  0  0  0  0  0  0
    1.2834   -5.1597   33.9711 H   0  0  0  0  0  0  0  0  0  0  0  0
    0.0145   -4.7825   31.7002 H   0  0  0  0  0  0  0  0  0  0  0  0
   -1.5114   -4.3302   32.4046 H   0  0  0  0  0  0  0  0  0  0  0  0
  1  2  1  0
  2  3  1  0
  3  4  1  0
  4  5  2  0
  5  6  1  0
  6  7  2  0
  7  8  1  0
  8  9  2  0
  2 10  1  0
 10 11  1  0
 10 12  1  0
 12 13  1  0
 13 14  1  0
 14 15  2  0
 15 16  1  0
 16 17  2  0
 17 18  1  0
 18 19  1  0
  9  4  1  0
 19 10  1  0
 18 14  1  0
  1 20  1  0
  1 21  1  0
  1 22  1  0
  3 23  1  0
  3 24  1  0
  5 25  1  0
  6 26  1  0
  7 27  1  0
  8 28  1  0
  9 29  1  0
 11 30  1  0
 12 31  1  0
 12 32  1  0
 13 33  1  0
 13 34  1  0
 17 35  1  0
 19 36  1  0
 19 37  1  0
M  END
>  <Energy>  (1096) 
16.090785916128933

>  <compound_id>  (1096) 
3885

>  <target_id>  (1096) 
1

>  <reference_id>  (1096) 
134

>  <inspiration_ids>  (1096) 
[134, 13]

>  <energy_score>  (1096) 
-24.816016362640752

>  <distance_score>  (1096) 
1.310750063620638

>  <path>  (1096) 
/opt/xchem-fragalysis-2/maxwin/BulkDock/SCRATCH/505734/C3885-P134/C3885-P134.minimised.mol

>  <scratch_subdir>  (1096) 
/opt/xchem-fragalysis-2/maxwin/BulkDock/SCRATCH/505734/C3885-P134

>  <fragmenstein_runtime>  (1096) 
4.838525056838989

>  <fragmenstein_outcome>  (1096) 
too moved

>  <fragmenstein_mode>  (1096) 
expansion

>  <fragmenstein_error>  (1096) 


$$$$
C3885-P13
     RDKit          3D

 37 39  0  0  0  0  0  0  0  0999 V2000
   -0.3308   -3.9424   29.0255 C   0  0  0  0  0  0  0  0  0  0  0  0
   -0.5698   -2.6217   29.5804 N   0  0  0  0  0  0  0  0  0  0  0  0
    0.4191   -1.7128   28.9814 C   0  0  0  0  0  0  0  0  0  0  0  0
   -0.1526   -0.4032   28.5030 C   0  0  0  0  0  0  0  0  0  0  0  0
   -1.3666   -0.3527   27.8042 C   0  0  0  0  0  0  0  0  0  0  0  0
   -1.8375    0.8559   27.2929 C   0  0  0  0  0  0  0  0  0  0  0  0
   -1.1025    2.0240   27.4711 C   0  0  0  0  0  0  0  0  0  0  0  0
    0.1138    1.9837   28.1477 C   0  0  0  0  0  0  0  0  0  0  0  0
    0.5909    0.7757   28.6549 C   0  0  0  0  0  0  0  0  0  0  0  0
   -0.7103   -2.6156   31.0407 C   0  0  0  0  0  0  0  0  0  0  0  0
   -1.9477   -3.2909   31.3647 O   0  0  0  0  0  0  0  0  0  0  0  0
   -0.7917   -1.1727   31.6096 C   0  0  0  0  0  0  0  0  0  0  0  0
   -0.9535   -1.1297   33.1277 C   0  0  0  0  0  0  0  0  0  0  0  0
   -0.1204   -2.1628   33.8011 C   0  0  0  0  0  0  0  0  0  0  0  0
    0.1776   -2.2718   35.0755 N   0  0  0  0  0  0  0  0  0  0  0  0
    0.8611   -3.4577   35.2563 N   0  0  0  0  0  0  0  0  0  0  0  0
    0.9814   -4.0338   34.0824 C   0  0  0  0  0  0  0  0  0  0  0  0
    0.4195   -3.2320   33.1488 N   0  0  0  0  0  0  0  0  0  0  0  0
    0.4299   -3.4114   31.7233 C   0  0  0  0  0  0  0  0  0  0  0  0
   -0.6019   -3.9248   27.9707 H   0  0  0  0  0  0  0  0  0  0  0  0
    0.7200   -4.2474   29.1103 H   0  0  0  0  0  0  0  0  0  0  0  0
   -0.9207   -4.7138   29.5099 H   0  0  0  0  0  0  0  0  0  0  0  0
    1.2618   -1.5476   29.6640 H   0  0  0  0  0  0  0  0  0  0  0  0
    0.8784   -2.1537   28.0848 H   0  0  0  0  0  0  0  0  0  0  0  0
   -1.9405   -1.2630   27.6293 H   0  0  0  0  0  0  0  0  0  0  0  0
   -2.7767    0.8855   26.7470 H   0  0  0  0  0  0  0  0  0  0  0  0
   -1.4847    2.9660   27.0838 H   0  0  0  0  0  0  0  0  0  0  0  0
    0.6854    2.8985   28.2806 H   0  0  0  0  0  0  0  0  0  0  0  0
    1.5502    0.7631   29.1656 H   0  0  0  0  0  0  0  0  0  0  0  0
   -2.1584   -3.1287   32.3009 H   0  0  0  0  0  0  0  0  0  0  0  0
   -1.6338   -0.6298   31.1619 H   0  0  0  0  0  0  0  0  0  0  0  0
    0.1234   -0.6177   31.3719 H   0  0  0  0  0  0  0  0  0  0  0  0
   -2.0033   -1.2913   33.3994 H   0  0  0  0  0  0  0  0  0  0  0  0
   -0.6842   -0.1342   33.4988 H   0  0  0  0  0  0  0  0  0  0  0  0
    1.4700   -4.9754   33.8781 H   0  0  0  0  0  0  0  0  0  0  0  0
    1.4189   -3.0844   31.3831 H   0  0  0  0  0  0  0  0  0  0  0  0
    0.3280   -4.4890   31.5482 H   0  0  0  0  0  0  0  0  0  0  0  0
  1  2  1  0
  2  3  1  0
  3  4  1  0
  4  5  2  0
  5  6  1  0
  6  7  2  0
  7  8  1  0
  8  9  2  0
  2 10  1  0
 10 11  1  0
 10 12  1  0
 12 13  1  0
 13 14  1  0
 14 15  2  0
 15 16  1  0
 16 17  2  0
 17 18  1  0
 18 19  1  0
  9  4  1  0
 19 10  1  0
 18 14  1  0
  1 20  1  0
  1 21  1  0
  1 22  1  0
  3 23  1  0
  3 24  1  0
  5 25  1  0
  6 26  1  0
  7 27  1  0
  8 28  1  0
  9 29  1  0
 11 30  1  0
 12 31  1  0
 12 32  1  0
 13 33  1  0
 13 34  1  0
 17 35  1  0
 19 36  1  0
 19 37  1  0
M  END
>  <Energy>  (1097) 
11.898520634334641

>  <compound_id>  (1097) 
3885

>  <target_id>  (1097) 
1

>  <reference_id>  (1097) 
13

>  <inspiration_ids>  (1097) 
[134, 13]

>  <energy_score>  (1097) 
-29.00828164443439

>  <distance_score>  (1097) 
1.2672427933095365

>  <path>  (1097) 
/opt/xchem-fragalysis-2/maxwin/BulkDock/SCRATCH/505734/C3885-P13/C3885-P13.minimised.mol

>  <scratch_subdir>  (1097) 
/opt/xchem-fragalysis-2/maxwin/BulkDock/SCRATCH/505734/C3885-P13

>  <fragmenstein_runtime>  (1097) 
4.351723909378052

>  <fragmenstein_outcome>  (1097) 
too moved

>  <fragmenstein_mode>  (1097) 
expansion

>  <fragmenstein_error>  (1097) 


$$$$
C3886-P134
     RDKit          3D

 36 38  0  0  0  0  0  0  0  0999 V2000
    1.1640   -3.1312   33.6640 C   0  0  0  0  0  0  0  0  0  0  0  0
    0.1616   -3.2423   32.4984 C   0  0  0  0  0  0  0  0  0  0  0  0
   -0.4201   -1.7885   32.2921 C   0  0  0  0  0  0  0  0  0  0  0  0
   -0.4856   -1.2000   30.9033 C   0  0  0  0  0  0  0  0  0  0  0  0
   -1.2802   -1.7696   29.9030 C   0  0  0  0  0  0  0  0  0  0  0  0
   -1.3395   -1.2022   28.6300 C   0  0  0  0  0  0  0  0  0  0  0  0
   -0.6433   -0.0316   28.3520 C   0  0  0  0  0  0  0  0  0  0  0  0
    0.1271    0.5659   29.3433 C   0  0  0  0  0  0  0  0  0  0  0  0
    0.2097   -0.0168   30.6095 C   0  0  0  0  0  0  0  0  0  0  0  0
    0.8324   -3.8877   31.2497 C   0  0  0  0  0  0  0  0  0  0  0  0
    1.3070   -5.3508   31.3938 C   0  0  0  0  0  0  0  0  0  0  0  0
    0.2346   -6.3822   31.4872 C   0  0  0  0  0  0  0  0  0  0  0  0
   -0.0737   -7.3290   30.6264 N   0  0  0  0  0  0  0  0  0  0  0  0
   -1.0607   -8.1074   31.1775 N   0  0  0  0  0  0  0  0  0  0  0  0
   -1.3219   -7.6210   32.3677 C   0  0  0  0  0  0  0  0  0  0  0  0
   -0.5880   -6.5008   32.5639 N   0  0  0  0  0  0  0  0  0  0  0  0
   -0.7432   -5.4759   33.5601 C   0  0  0  0  0  0  0  0  0  0  0  0
   -1.0133   -4.1651   32.8251 C   0  0  0  0  0  0  0  0  0  0  0  0
   -2.1023   -3.9674   32.2737 O   0  0  0  0  0  0  0  0  0  0  0  0
    1.9400   -2.3890   33.4419 H   0  0  0  0  0  0  0  0  0  0  0  0
    0.6569   -2.8289   34.5879 H   0  0  0  0  0  0  0  0  0  0  0  0
    1.6893   -4.0645   33.8790 H   0  0  0  0  0  0  0  0  0  0  0  0
   -1.4251   -1.7020   32.7287 H   0  0  0  0  0  0  0  0  0  0  0  0
    0.1694   -1.0889   32.9020 H   0  0  0  0  0  0  0  0  0  0  0  0
   -1.8644   -2.6664   30.0923 H   0  0  0  0  0  0  0  0  0  0  0  0
   -1.9464   -1.6669   27.8543 H   0  0  0  0  0  0  0  0  0  0  0  0
   -0.7151    0.4131   27.3636 H   0  0  0  0  0  0  0  0  0  0  0  0
    0.6616    1.4877   29.1295 H   0  0  0  0  0  0  0  0  0  0  0  0
    0.8192    0.4717   31.3659 H   0  0  0  0  0  0  0  0  0  0  0  0
    1.6987   -3.2759   30.9663 H   0  0  0  0  0  0  0  0  0  0  0  0
    0.1454   -3.8764   30.3974 H   0  0  0  0  0  0  0  0  0  0  0  0
    1.9977   -5.4572   32.2359 H   0  0  0  0  0  0  0  0  0  0  0  0
    1.8939   -5.5724   30.4939 H   0  0  0  0  0  0  0  0  0  0  0  0
   -2.0255   -8.0311   33.0774 H   0  0  0  0  0  0  0  0  0  0  0  0
    0.1590   -5.4530   34.1704 H   0  0  0  0  0  0  0  0  0  0  0  0
   -1.5601   -5.7503   34.2215 H   0  0  0  0  0  0  0  0  0  0  0  0
  1  2  1  0
  2  3  1  0
  3  4  1  0
  4  5  2  0
  5  6  1  0
  6  7  2  0
  7  8  1  0
  8  9  2  0
  2 10  1  0
 10 11  1  0
 11 12  1  0
 12 13  2  0
 13 14  1  0
 14 15  2  0
 15 16  1  0
 16 17  1  0
 17 18  1  0
 18 19  2  0
 18  2  1  0
  9  4  1  0
 16 12  1  0
  1 20  1  0
  1 21  1  0
  1 22  1  0
  3 23  1  0
  3 24  1  0
  5 25  1  0
  6 26  1  0
  7 27  1  0
  8 28  1  0
  9 29  1  0
 10 30  1  0
 10 31  1  0
 11 32  1  0
 11 33  1  0
 15 34  1  0
 17 35  1  0
 17 36  1  0
M  END
>  <Energy>  (1098) 
40.810658764288405

>  <compound_id>  (1098) 
3886

>  <target_id>  (1098) 
1

>  <reference_id>  (1098) 
134

>  <inspiration_ids>  (1098) 
[134, 25]

>  <energy_score>  (1098) 
-13.326695311233578

>  <distance_score>  (1098) 
1.4966978220082106

>  <path>  (1098) 
/opt/xchem-fragalysis-2/maxwin/BulkDock/SCRATCH/505734/C3886-P134/C3886-P134.minimised.mol

>  <scratch_subdir>  (1098) 
/opt/xchem-fragalysis-2/maxwin/BulkDock/SCRATCH/505734/C3886-P134

>  <fragmenstein_runtime>  (1098) 
2.391291379928589

>  <fragmenstein_outcome>  (1098) 
too moved

>  <fragmenstein_mode>  (1098) 
expansion

>  <fragmenstein_error>  (1098) 


$$$$
C3886-P25
     RDKit          3D

 36 38  0  0  0  0  0  0  0  0999 V2000
    1.4571   -2.2382   33.2106 C   0  0  0  0  0  0  0  0  0  0  0  0
    0.3609   -3.0870   32.5452 C   0  0  0  0  0  0  0  0  0  0  0  0
   -0.7547   -2.1736   31.9416 C   0  0  0  0  0  0  0  0  0  0  0  0
   -0.4661   -1.3984   30.6855 C   0  0  0  0  0  0  0  0  0  0  0  0
   -0.9551   -1.8544   29.4558 C   0  0  0  0  0  0  0  0  0  0  0  0
   -0.8041   -1.0926   28.3005 C   0  0  0  0  0  0  0  0  0  0  0  0
   -0.1424    0.1272   28.3530 C   0  0  0  0  0  0  0  0  0  0  0  0
    0.3706    0.5840   29.5637 C   0  0  0  0  0  0  0  0  0  0  0  0
    0.2041   -0.1704   30.7274 C   0  0  0  0  0  0  0  0  0  0  0  0
    1.0273   -4.0604   31.5524 C   0  0  0  0  0  0  0  0  0  0  0  0
    0.0907   -5.0790   30.9201 C   0  0  0  0  0  0  0  0  0  0  0  0
   -0.4031   -6.1916   31.7640 C   0  0  0  0  0  0  0  0  0  0  0  0
   -0.9554   -7.2963   31.3025 N   0  0  0  0  0  0  0  0  0  0  0  0
   -1.3275   -8.0650   32.3631 N   0  0  0  0  0  0  0  0  0  0  0  0
   -1.0050   -7.4117   33.4531 C   0  0  0  0  0  0  0  0  0  0  0  0
   -0.4160   -6.2320   33.1242 N   0  0  0  0  0  0  0  0  0  0  0  0
    0.0955   -5.2424   34.0374 C   0  0  0  0  0  0  0  0  0  0  0  0
   -0.3271   -3.8425   33.6751 C   0  0  0  0  0  0  0  0  0  0  0  0
   -1.1974   -3.2674   34.3265 O   0  0  0  0  0  0  0  0  0  0  0  0
    1.0325   -1.5067   33.9080 H   0  0  0  0  0  0  0  0  0  0  0  0
    2.0491   -1.6935   32.4681 H   0  0  0  0  0  0  0  0  0  0  0  0
    2.1489   -2.8636   33.7876 H   0  0  0  0  0  0  0  0  0  0  0  0
   -1.6558   -2.7794   31.7620 H   0  0  0  0  0  0  0  0  0  0  0  0
   -1.0813   -1.4403   32.6946 H   0  0  0  0  0  0  0  0  0  0  0  0
   -1.5036   -2.7884   29.3715 H   0  0  0  0  0  0  0  0  0  0  0  0
   -1.2225   -1.4463   27.3604 H   0  0  0  0  0  0  0  0  0  0  0  0
   -0.0387    0.7242   27.4513 H   0  0  0  0  0  0  0  0  0  0  0  0
    0.8784    1.5447   29.6031 H   0  0  0  0  0  0  0  0  0  0  0  0
    0.5780    0.2259   31.6678 H   0  0  0  0  0  0  0  0  0  0  0  0
    1.4859   -3.4746   30.7445 H   0  0  0  0  0  0  0  0  0  0  0  0
    1.8627   -4.5878   32.0311 H   0  0  0  0  0  0  0  0  0  0  0  0
    0.6193   -5.5183   30.0671 H   0  0  0  0  0  0  0  0  0  0  0  0
   -0.7610   -4.5531   30.4957 H   0  0  0  0  0  0  0  0  0  0  0  0
   -1.1802   -7.7513   34.4658 H   0  0  0  0  0  0  0  0  0  0  0  0
    1.1851   -5.3263   34.0759 H   0  0  0  0  0  0  0  0  0  0  0  0
   -0.2859   -5.4719   35.0391 H   0  0  0  0  0  0  0  0  0  0  0  0
  1  2  1  0
  2  3  1  0
  3  4  1  0
  4  5  2  0
  5  6  1  0
  6  7  2  0
  7  8  1  0
  8  9  2  0
  2 10  1  0
 10 11  1  0
 11 12  1  0
 12 13  2  0
 13 14  1  0
 14 15  2  0
 15 16  1  0
 16 17  1  0
 17 18  1  0
 18 19  2  0
 18  2  1  0
  9  4  1  0
 16 12  1  0
  1 20  1  0
  1 21  1  0
  1 22  1  0
  3 23  1  0
  3 24  1  0
  5 25  1  0
  6 26  1  0
  7 27  1  0
  8 28  1  0
  9 29  1  0
 10 30  1  0
 10 31  1  0
 11 32  1  0
 11 33  1  0
 15 34  1  0
 17 35  1  0
 17 36  1  0
M  END
>  <Energy>  (1099) 
29.688098485889725

>  <compound_id>  (1099) 
3886

>  <target_id>  (1099) 
1

>  <reference_id>  (1099) 
25

>  <inspiration_ids>  (1099) 
[134, 25]

>  <energy_score>  (1099) 
-24.449255589633168

>  <distance_score>  (1099) 
1.6785710294262557

>  <path>  (1099) 
/opt/xchem-fragalysis-2/maxwin/BulkDock/SCRATCH/505734/C3886-P25/C3886-P25.minimised.mol

>  <scratch_subdir>  (1099) 
/opt/xchem-fragalysis-2/maxwin/BulkDock/SCRATCH/505734/C3886-P25

>  <fragmenstein_runtime>  (1099) 
1.869600772857666

>  <fragmenstein_outcome>  (1099) 
too moved

>  <fragmenstein_mode>  (1099) 
expansion

>  <fragmenstein_error>  (1099) 


$$$$
C3892-P134
     RDKit          3D

 39 42  0  0  0  0  0  0  0  0999 V2000
    2.6567    6.3232   25.1092 C   0  0  0  0  0  0  0  0  0  0  0  0
    2.3904    5.8377   26.4699 C   0  0  0  0  0  0  0  0  0  0  0  0
    3.1137    6.0819   27.5390 N   0  0  0  0  0  0  0  0  0  0  0  0
    2.4936    5.4941   28.6093 N   0  0  0  0  0  0  0  0  0  0  0  0
    1.3918    4.9031   28.1814 C   0  0  0  0  0  0  0  0  0  0  0  0
    1.3360    5.0359   26.8112 N   0  0  0  0  0  0  0  0  0  0  0  0
    0.5137    4.2498   25.9039 C   0  0  0  0  0  0  0  0  0  0  0  0
    0.4906    2.8746   26.4921 C   0  0  0  0  0  0  0  0  0  0  0  0
    1.5891    2.1835   26.4523 N   0  0  0  0  0  0  0  0  0  0  0  0
    1.6776    0.9417   27.6335 S   0  0  0  0  0  4  0  0  0  0  0  0
   -0.0422    1.2134   28.0738 C   0  0  0  0  0  0  0  0  0  0  0  0
   -0.6414    0.3205   29.0483 C   0  0  0  0  0  0  0  0  0  0  0  0
   -1.1744   -0.8956   28.6368 C   0  0  0  0  0  0  0  0  0  0  0  0
   -1.4573   -1.8697   29.5945 C   0  0  0  0  0  0  0  0  0  0  0  0
   -1.2335   -1.6177   30.9490 C   0  0  0  0  0  0  0  0  0  0  0  0
   -0.6904   -0.3991   31.3493 C   0  0  0  0  0  0  0  0  0  0  0  0
   -0.3699    0.5618   30.3944 C   0  0  0  0  0  0  0  0  0  0  0  0
   -0.6295    2.4454   27.4154 C   0  0  0  0  0  0  0  0  0  0  0  0
   -1.9355    2.1445   26.6666 C   0  0  0  0  0  0  0  0  0  0  0  0
   -0.8411    3.6147   28.3907 C   0  0  0  0  0  0  0  0  0  0  0  0
    0.4334    4.1548   29.0551 C   0  0  0  0  0  0  0  0  0  0  0  0
    1.7464    6.7087   24.6396 H   0  0  0  0  0  0  0  0  0  0  0  0
    3.0600    5.5208   24.4837 H   0  0  0  0  0  0  0  0  0  0  0  0
    3.3908    7.1351   25.1266 H   0  0  0  0  0  0  0  0  0  0  0  0
   -0.4727    4.7107   25.8338 H   0  0  0  0  0  0  0  0  0  0  0  0
    0.9841    4.2187   24.9177 H   0  0  0  0  0  0  0  0  0  0  0  0
    1.5799   -0.1820   26.8885 H   0  0  0  0  0  0  0  0  0  0  0  0
   -1.3209   -1.1160   27.5827 H   0  0  0  0  0  0  0  0  0  0  0  0
   -1.8378   -2.8342   29.2683 H   0  0  0  0  0  0  0  0  0  0  0  0
   -1.4503   -2.3847   31.6878 H   0  0  0  0  0  0  0  0  0  0  0  0
   -0.4700   -0.2202   32.3983 H   0  0  0  0  0  0  0  0  0  0  0  0
    0.1399    1.4696   30.7040 H   0  0  0  0  0  0  0  0  0  0  0  0
   -2.1662    2.9161   25.9251 H   0  0  0  0  0  0  0  0  0  0  0  0
   -1.8879    1.1846   26.1459 H   0  0  0  0  0  0  0  0  0  0  0  0
   -2.7785    2.0793   27.3608 H   0  0  0  0  0  0  0  0  0  0  0  0
   -1.3612    4.4445   27.8945 H   0  0  0  0  0  0  0  0  0  0  0  0
   -1.5248    3.2772   29.1611 H   0  0  0  0  0  0  0  0  0  0  0  0
    0.1421    4.8486   29.8501 H   0  0  0  0  0  0  0  0  0  0  0  0
    0.9783    3.3472   29.5541 H   0  0  0  0  0  0  0  0  0  0  0  0
  1  2  1  0
  2  3  2  0
  3  4  1  0
  4  5  2  0
  5  6  1  0
  6  7  1  0
  7  8  1  0
  8  9  2  0
  9 10  1  0
 10 11  2  0
 11 12  1  0
 12 13  2  0
 13 14  1  0
 14 15  2  0
 15 16  1  0
 16 17  2  0
 11 18  1  0
 18 19  1  0
 18 20  1  0
 20 21  1  0
  6  2  1  0
 18  8  1  0
 21  5  1  0
 17 12  1  0
  1 22  1  0
  1 23  1  0
  1 24  1  0
  7 25  1  0
  7 26  1  0
 10 27  1  0
 13 28  1  0
 14 29  1  0
 15 30  1  0
 16 31  1  0
 17 32  1  0
 19 33  1  0
 19 34  1  0
 19 35  1  0
 20 36  1  0
 20 37  1  0
 21 38  1  0
 21 39  1  0
M  END
>  <Energy>  (1100) 
64.254389156388086

>  <compound_id>  (1100) 
3892

>  <target_id>  (1100) 
1

>  <reference_id>  (1100) 
134

>  <inspiration_ids>  (1100) 
[134, 57]

>  <energy_score>  (1100) 
-126.69744349975883

>  <distance_score>  (1100) 
1.3666104924354148

>  <path>  (1100) 
/opt/xchem-fragalysis-2/maxwin/BulkDock/SCRATCH/505734/C3892-P134/C3892-P134.minimised.mol

>  <scratch_subdir>  (1100) 
/opt/xchem-fragalysis-2/maxwin/BulkDock/SCRATCH/505734/C3892-P134

>  <fragmenstein_runtime>  (1100) 
5.171847820281982

>  <fragmenstein_outcome>  (1100) 
too moved

>  <fragmenstein_mode>  (1100) 
expansion

>  <fragmenstein_error>  (1100) 


$$$$
C3892-P57
     RDKit          3D

 39 42  0  0  0  0  0  0  0  0999 V2000
    2.7071    6.2630   25.0967 C   0  0  0  0  0  0  0  0  0  0  0  0
    2.4067    5.7664   26.4466 C   0  0  0  0  0  0  0  0  0  0  0  0
    3.1126    5.9897   27.5319 N   0  0  0  0  0  0  0  0  0  0  0  0
    2.4614    5.4050   28.5845 N   0  0  0  0  0  0  0  0  0  0  0  0
    1.3579    4.8380   28.1298 C   0  0  0  0  0  0  0  0  0  0  0  0
    1.3328    4.9789   26.7602 N   0  0  0  0  0  0  0  0  0  0  0  0
    0.5000    4.2309   25.8304 C   0  0  0  0  0  0  0  0  0  0  0  0
    0.4284    2.8421   26.3846 C   0  0  0  0  0  0  0  0  0  0  0  0
    1.4879    2.0986   26.2982 N   0  0  0  0  0  0  0  0  0  0  0  0
    1.5524    0.8404   27.4647 S   0  0  0  0  0  4  0  0  0  0  0  0
   -0.1331    1.1882   27.9678 C   0  0  0  0  0  0  0  0  0  0  0  0
   -0.7324    0.3264   28.9710 C   0  0  0  0  0  0  0  0  0  0  0  0
   -1.2673   -0.9007   28.5928 C   0  0  0  0  0  0  0  0  0  0  0  0
   -1.5587   -1.8433   29.5794 C   0  0  0  0  0  0  0  0  0  0  0  0
   -1.3345   -1.5544   30.9266 C   0  0  0  0  0  0  0  0  0  0  0  0
   -0.7859   -0.3281   31.2925 C   0  0  0  0  0  0  0  0  0  0  0  0
   -0.4630    0.6048   30.3109 C   0  0  0  0  0  0  0  0  0  0  0  0
   -0.6952    2.4326   27.3122 C   0  0  0  0  0  0  0  0  0  0  0  0
   -1.9966    2.1387   26.5534 C   0  0  0  0  0  0  0  0  0  0  0  0
   -0.9031    3.6011   28.2840 C   0  0  0  0  0  0  0  0  0  0  0  0
    0.3656    4.1102   28.9794 C   0  0  0  0  0  0  0  0  0  0  0  0
    1.8141    6.6772   24.6183 H   0  0  0  0  0  0  0  0  0  0  0  0
    3.1003    5.4590   24.4668 H   0  0  0  0  0  0  0  0  0  0  0  0
    3.4607    7.0560   25.1366 H   0  0  0  0  0  0  0  0  0  0  0  0
   -0.4729    4.7192   25.7570 H   0  0  0  0  0  0  0  0  0  0  0  0
    0.9801    4.2085   24.8485 H   0  0  0  0  0  0  0  0  0  0  0  0
    1.3631   -0.2696   26.7194 H   0  0  0  0  0  0  0  0  0  0  0  0
   -1.4063   -1.1546   27.5441 H   0  0  0  0  0  0  0  0  0  0  0  0
   -1.9450   -2.8143   29.2836 H   0  0  0  0  0  0  0  0  0  0  0  0
   -1.5576   -2.2983   31.6869 H   0  0  0  0  0  0  0  0  0  0  0  0
   -0.5665   -0.1197   32.3363 H   0  0  0  0  0  0  0  0  0  0  0  0
    0.0458    1.5193   30.5992 H   0  0  0  0  0  0  0  0  0  0  0  0
   -2.2715    2.9640   25.8881 H   0  0  0  0  0  0  0  0  0  0  0  0
   -1.9027    1.2374   25.9404 H   0  0  0  0  0  0  0  0  0  0  0  0
   -2.8265    1.9694   27.2476 H   0  0  0  0  0  0  0  0  0  0  0  0
   -1.3976    4.4435   27.7822 H   0  0  0  0  0  0  0  0  0  0  0  0
   -1.6097    3.2736   29.0354 H   0  0  0  0  0  0  0  0  0  0  0  0
    0.0685    4.8031   29.7744 H   0  0  0  0  0  0  0  0  0  0  0  0
    0.8865    3.2892   29.4811 H   0  0  0  0  0  0  0  0  0  0  0  0
  1  2  1  0
  2  3  2  0
  3  4  1  0
  4  5  2  0
  5  6  1  0
  6  7  1  0
  7  8  1  0
  8  9  2  0
  9 10  1  0
 10 11  2  0
 11 12  1  0
 12 13  2  0
 13 14  1  0
 14 15  2  0
 15 16  1  0
 16 17  2  0
 11 18  1  0
 18 19  1  0
 18 20  1  0
 20 21  1  0
  6  2  1  0
 18  8  1  0
 21  5  1  0
 17 12  1  0
  1 22  1  0
  1 23  1  0
  1 24  1  0
  7 25  1  0
  7 26  1  0
 10 27  1  0
 13 28  1  0
 14 29  1  0
 15 30  1  0
 16 31  1  0
 17 32  1  0
 19 33  1  0
 19 34  1  0
 19 35  1  0
 20 36  1  0
 20 37  1  0
 21 38  1  0
 21 39  1  0
M  END
>  <Energy>  (1101) 
62.889222223476388

>  <compound_id>  (1101) 
3892

>  <target_id>  (1101) 
1

>  <reference_id>  (1101) 
57

>  <inspiration_ids>  (1101) 
[134, 57]

>  <energy_score>  (1101) 
-128.06261043267025

>  <distance_score>  (1101) 
1.3232082824125246

>  <path>  (1101) 
/opt/xchem-fragalysis-2/maxwin/BulkDock/SCRATCH/505734/C3892-P57/C3892-P57.minimised.mol

>  <scratch_subdir>  (1101) 
/opt/xchem-fragalysis-2/maxwin/BulkDock/SCRATCH/505734/C3892-P57

>  <fragmenstein_runtime>  (1101) 
5.08315896987915

>  <fragmenstein_outcome>  (1101) 
too moved

>  <fragmenstein_mode>  (1101) 
expansion

>  <fragmenstein_error>  (1101) 


$$$$
C3895-P134
     RDKit          3D

 67 70  0  0  0  0  0  0  0  0999 V2000
    0.8267   -9.0788   42.0655 C   0  0  0  0  0  0  0  0  0  0  0  0
    0.5465   -8.2518   40.8258 C   0  0  0  0  0  0  0  0  0  0  0  0
    1.7128   -8.2806   39.9955 O   0  0  0  0  0  0  0  0  0  0  0  0
    1.5864   -7.5501   38.8562 C   0  0  0  0  0  0  0  0  0  0  0  0
    0.6316   -6.8603   38.5452 O   0  0  0  0  0  0  0  0  0  0  0  0
    2.8395   -7.7277   38.0777 C   0  0  0  0  0  0  0  0  0  0  0  0
    3.1004   -7.2263   36.8572 C   0  0  0  0  0  0  0  0  0  0  0  0
    2.1992   -6.3458   36.0118 C   0  0  0  0  0  0  0  0  0  0  0  0
    3.0220   -5.3366   35.2065 C   0  0  0  0  0  0  0  0  0  0  0  0
    2.2599   -4.0437   34.9536 C   0  0  0  0  0  0  0  0  0  0  0  0
    1.1846   -4.0320   33.8482 C   0  0  0  0  0  0  0  0  0  0  0  0
    0.2334   -5.2470   33.7784 C   0  0  0  0  0  0  0  0  0  0  0  0
   -0.5729   -5.2650   32.4369 C   0  0  0  0  0  0  0  0  0  0  0  0
   -0.8816   -6.7035   32.1025 C   0  0  0  0  0  0  0  0  0  0  0  0
   -0.4298   -7.4551   33.3151 C   0  0  0  0  0  0  0  0  0  0  0  0
    0.7929   -6.6640   33.8112 C   0  0  0  0  0  0  0  0  0  0  0  0
    1.3197   -7.2342   35.1288 C   0  0  0  0  0  0  0  0  0  0  0  0
   -0.6873   -4.9901   34.9698 C   0  0  0  0  0  0  0  0  0  0  0  0
   -0.7269   -3.4780   35.1861 C   0  0  0  0  0  0  0  0  0  0  0  0
    0.1916   -2.8345   34.1088 C   0  0  0  0  0  0  0  0  0  0  0  0
    0.8440   -1.7286   34.7178 O   0  0  0  0  0  0  0  0  0  0  0  0
   -0.4576   -2.4104   32.8542 N   0  0  0  0  0  0  0  0  0  0  0  0
   -1.8250   -1.9496   33.0134 C   0  0  0  0  0  0  0  0  0  0  0  0
    0.3571   -1.4184   32.1324 C   0  0  0  0  0  0  0  0  0  0  0  0
   -0.1506   -1.0131   30.7635 C   0  0  0  0  0  0  0  0  0  0  0  0
   -0.6795   -1.9440   29.8623 C   0  0  0  0  0  0  0  0  0  0  0  0
   -1.1385   -1.5269   28.6156 C   0  0  0  0  0  0  0  0  0  0  0  0
   -1.0484   -0.1898   28.2389 C   0  0  0  0  0  0  0  0  0  0  0  0
   -0.4978    0.7405   29.1117 C   0  0  0  0  0  0  0  0  0  0  0  0
   -0.0496    0.3309   30.3668 C   0  0  0  0  0  0  0  0  0  0  0  0
    1.0916  -10.1061   41.7958 H   0  0  0  0  0  0  0  0  0  0  0  0
   -0.0449   -9.0995   42.7256 H   0  0  0  0  0  0  0  0  0  0  0  0
    1.6780   -8.6670   42.6176 H   0  0  0  0  0  0  0  0  0  0  0  0
   -0.3062   -8.6729   40.2824 H   0  0  0  0  0  0  0  0  0  0  0  0
    0.3223   -7.2193   41.1170 H   0  0  0  0  0  0  0  0  0  0  0  0
    3.5837   -8.3557   38.5576 H   0  0  0  0  0  0  0  0  0  0  0  0
    4.0586   -7.4890   36.4109 H   0  0  0  0  0  0  0  0  0  0  0  0
    1.5725   -5.7687   36.6954 H   0  0  0  0  0  0  0  0  0  0  0  0
    3.9172   -5.0638   35.7827 H   0  0  0  0  0  0  0  0  0  0  0  0
    3.3923   -5.7632   34.2678 H   0  0  0  0  0  0  0  0  0  0  0  0
    3.0016   -3.2802   34.6781 H   0  0  0  0  0  0  0  0  0  0  0  0
    1.8576   -3.7011   35.9144 H   0  0  0  0  0  0  0  0  0  0  0  0
    1.7154   -3.9135   32.8951 H   0  0  0  0  0  0  0  0  0  0  0  0
    0.0146   -4.8388   31.6152 H   0  0  0  0  0  0  0  0  0  0  0  0
   -1.5027   -4.7032   32.5045 H   0  0  0  0  0  0  0  0  0  0  0  0
   -0.3025   -7.0100   31.2222 H   0  0  0  0  0  0  0  0  0  0  0  0
   -1.9265   -6.8980   31.8742 H   0  0  0  0  0  0  0  0  0  0  0  0
   -1.2228   -7.5107   34.0696 H   0  0  0  0  0  0  0  0  0  0  0  0
   -0.2475   -8.4545   32.9755 H   0  0  0  0  0  0  0  0  0  0  0  0
    1.5920   -6.7192   33.0632 H   0  0  0  0  0  0  0  0  0  0  0  0
    1.8872   -8.1369   34.8803 H   0  0  0  0  0  0  0  0  0  0  0  0
    0.4807   -7.5953   35.7395 H   0  0  0  0  0  0  0  0  0  0  0  0
   -1.6527   -5.4575   34.8446 H   0  0  0  0  0  0  0  0  0  0  0  0
   -0.3218   -5.4250   35.9018 H   0  0  0  0  0  0  0  0  0  0  0  0
   -1.7429   -3.0834   35.2239 H   0  0  0  0  0  0  0  0  0  0  0  0
   -0.3398   -3.2533   36.1903 H   0  0  0  0  0  0  0  0  0  0  0  0
    0.1341   -1.1424   35.0241 H   0  0  0  0  0  0  0  0  0  0  0  0
   -1.9024   -1.1373   33.7453 H   0  0  0  0  0  0  0  0  0  0  0  0
   -2.2689   -1.5827   32.0825 H   0  0  0  0  0  0  0  0  0  0  0  0
   -2.4928   -2.7573   33.3095 H   0  0  0  0  0  0  0  0  0  0  0  0
    0.4486   -0.5043   32.7343 H   0  0  0  0  0  0  0  0  0  0  0  0
    1.3724   -1.8057   31.9799 H   0  0  0  0  0  0  0  0  0  0  0  0
   -0.7541   -2.9936   30.1313 H   0  0  0  0  0  0  0  0  0  0  0  0
   -1.5787   -2.2442   27.9307 H   0  0  0  0  0  0  0  0  0  0  0  0
   -1.4154    0.1171   27.2626 H   0  0  0  0  0  0  0  0  0  0  0  0
   -0.4274    1.7845   28.8171 H   0  0  0  0  0  0  0  0  0  0  0  0
    0.3818    1.0731   31.0347 H   0  0  0  0  0  0  0  0  0  0  0  0
  1  2  1  0
  2  3  1  0
  3  4  1  0
  4  5  2  0
  4  6  1  0
  6  7  2  3
  7  8  1  0
  8  9  1  0
  9 10  1  0
 10 11  1  0
 11 12  1  0
 12 13  1  0
 13 14  1  0
 14 15  1  0
 15 16  1  0
 16 17  1  0
 12 18  1  0
 18 19  1  0
 19 20  1  0
 20 21  1  0
 20 22  1  0
 22 23  1  0
 22 24  1  0
 24 25  1  0
 25 26  2  0
 26 27  1  0
 27 28  2  0
 28 29  1  0
 29 30  2  0
 17  8  1  0
 30 25  1  0
 20 11  1  0
 16 12  1  0
  1 31  1  0
  1 32  1  0
  1 33  1  0
  2 34  1  0
  2 35  1  0
  6 36  1  0
  7 37  1  0
  8 38  1  0
  9 39  1  0
  9 40  1  0
 10 41  1  0
 10 42  1  0
 11 43  1  0
 13 44  1  0
 13 45  1  0
 14 46  1  0
 14 47  1  0
 15 48  1  0
 15 49  1  0
 16 50  1  0
 17 51  1  0
 17 52  1  0
 18 53  1  0
 18 54  1  0
 19 55  1  0
 19 56  1  0
 21 57  1  0
 23 58  1  0
 23 59  1  0
 23 60  1  0
 24 61  1  0
 24 62  1  0
 26 63  1  0
 27 64  1  0
 28 65  1  0
 29 66  1  0
 30 67  1  0
M  END
>  <Energy>  (1102) 
67.40720333856784

>  <compound_id>  (1102) 
3895

>  <target_id>  (1102) 
1

>  <reference_id>  (1102) 
134

>  <inspiration_ids>  (1102) 
[134, 78]

>  <energy_score>  (1102) 
-41.22146386947233

>  <distance_score>  (1102) 
2.4403028968168132

>  <path>  (1102) 
/opt/xchem-fragalysis-2/maxwin/BulkDock/SCRATCH/505734/C3895-P134/C3895-P134.minimised.mol

>  <scratch_subdir>  (1102) 
/opt/xchem-fragalysis-2/maxwin/BulkDock/SCRATCH/505734/C3895-P134

>  <fragmenstein_runtime>  (1102) 
22.97496223449707

>  <fragmenstein_outcome>  (1102) 
too moved

>  <fragmenstein_mode>  (1102) 
expansion

>  <fragmenstein_error>  (1102) 


$$$$
C3895-P78
     RDKit          3D

 67 70  0  0  0  0  0  0  0  0999 V2000
    0.7675   -9.8665   38.4783 C   0  0  0  0  0  0  0  0  0  0  0  0
    0.3634   -8.9337   39.6034 C   0  0  0  0  0  0  0  0  0  0  0  0
    0.5764   -7.5749   39.1908 O   0  0  0  0  0  0  0  0  0  0  0  0
    0.2017   -6.6702   40.1259 C   0  0  0  0  0  0  0  0  0  0  0  0
   -0.4623   -6.9017   41.1253 O   0  0  0  0  0  0  0  0  0  0  0  0
    0.7831   -5.3383   39.8693 C   0  0  0  0  0  0  0  0  0  0  0  0
    0.9683   -4.6626   38.7234 C   0  0  0  0  0  0  0  0  0  0  0  0
    0.5223   -5.0003   37.3073 C   0  0  0  0  0  0  0  0  0  0  0  0
    0.1419   -3.6603   36.6327 C   0  0  0  0  0  0  0  0  0  0  0  0
   -0.2135   -3.6374   35.1413 C   0  0  0  0  0  0  0  0  0  0  0  0
    0.9068   -4.1814   34.2601 C   0  0  0  0  0  0  0  0  0  0  0  0
    0.9054   -5.7226   34.0547 C   0  0  0  0  0  0  0  0  0  0  0  0
   -0.4417   -6.3365   33.5763 C   0  0  0  0  0  0  0  0  0  0  0  0
   -1.0826   -6.9546   34.8029 C   0  0  0  0  0  0  0  0  0  0  0  0
    0.0914   -7.5179   35.5638 C   0  0  0  0  0  0  0  0  0  0  0  0
    1.2611   -6.5518   35.3250 C   0  0  0  0  0  0  0  0  0  0  0  0
    1.6471   -5.7769   36.5982 C   0  0  0  0  0  0  0  0  0  0  0  0
    1.9774   -5.8847   32.9407 C   0  0  0  0  0  0  0  0  0  0  0  0
    2.2786   -4.4858   32.3967 C   0  0  0  0  0  0  0  0  0  0  0  0
    1.1036   -3.5729   32.8278 C   0  0  0  0  0  0  0  0  0  0  0  0
    1.6447   -2.2669   32.9208 O   0  0  0  0  0  0  0  0  0  0  0  0
   -0.0934   -3.6193   31.9872 N   0  0  0  0  0  0  0  0  0  0  0  0
    0.0769   -4.2038   30.6637 C   0  0  0  0  0  0  0  0  0  0  0  0
   -0.9656   -2.4303   31.9615 C   0  0  0  0  0  0  0  0  0  0  0  0
   -0.7350   -1.4030   30.8636 C   0  0  0  0  0  0  0  0  0  0  0  0
   -1.3357   -1.5619   29.6019 C   0  0  0  0  0  0  0  0  0  0  0  0
   -1.1330   -0.6340   28.5794 C   0  0  0  0  0  0  0  0  0  0  0  0
   -0.3355    0.4815   28.8062 C   0  0  0  0  0  0  0  0  0  0  0  0
    0.2632    0.6626   30.0511 C   0  0  0  0  0  0  0  0  0  0  0  0
    0.0655   -0.2723   31.0721 C   0  0  0  0  0  0  0  0  0  0  0  0
    0.7135  -10.9099   38.8022 H   0  0  0  0  0  0  0  0  0  0  0  0
    1.7858   -9.6503   38.1396 H   0  0  0  0  0  0  0  0  0  0  0  0
    0.1072   -9.7430   37.6153 H   0  0  0  0  0  0  0  0  0  0  0  0
   -0.6868   -9.0992   39.8638 H   0  0  0  0  0  0  0  0  0  0  0  0
    0.9863   -9.1380   40.4820 H   0  0  0  0  0  0  0  0  0  0  0  0
    1.1013   -4.8670   40.7971 H   0  0  0  0  0  0  0  0  0  0  0  0
    1.4830   -3.7060   38.8292 H   0  0  0  0  0  0  0  0  0  0  0  0
   -0.3841   -5.6097   37.3775 H   0  0  0  0  0  0  0  0  0  0  0  0
   -0.7094   -3.2297   37.1790 H   0  0  0  0  0  0  0  0  0  0  0  0
    0.9654   -2.9439   36.7704 H   0  0  0  0  0  0  0  0  0  0  0  0
   -0.3937   -2.5854   34.8980 H   0  0  0  0  0  0  0  0  0  0  0  0
   -1.1622   -4.1431   34.9682 H   0  0  0  0  0  0  0  0  0  0  0  0
    1.8349   -3.8999   34.7819 H   0  0  0  0  0  0  0  0  0  0  0  0
   -1.1242   -5.6219   33.1146 H   0  0  0  0  0  0  0  0  0  0  0  0
   -0.2720   -7.1362   32.8443 H   0  0  0  0  0  0  0  0  0  0  0  0
   -1.8126   -7.7252   34.5400 H   0  0  0  0  0  0  0  0  0  0  0  0
   -1.6004   -6.2057   35.4059 H   0  0  0  0  0  0  0  0  0  0  0  0
   -0.1507   -7.6740   36.6159 H   0  0  0  0  0  0  0  0  0  0  0  0
    0.3506   -8.4964   35.1590 H   0  0  0  0  0  0  0  0  0  0  0  0
    2.1323   -7.1846   35.1052 H   0  0  0  0  0  0  0  0  0  0  0  0
    2.4999   -5.1173   36.3944 H   0  0  0  0  0  0  0  0  0  0  0  0
    2.0470   -6.5249   37.2974 H   0  0  0  0  0  0  0  0  0  0  0  0
    1.6455   -6.5428   32.1328 H   0  0  0  0  0  0  0  0  0  0  0  0
    2.9093   -6.3064   33.3299 H   0  0  0  0  0  0  0  0  0  0  0  0
    3.2121   -4.1232   32.8530 H   0  0  0  0  0  0  0  0  0  0  0  0
    2.4942   -4.4860   31.3239 H   0  0  0  0  0  0  0  0  0  0  0  0
    1.1131   -1.7856   33.5709 H   0  0  0  0  0  0  0  0  0  0  0  0
    0.4140   -5.2427   30.7179 H   0  0  0  0  0  0  0  0  0  0  0  0
   -0.8754   -4.2654   30.1339 H   0  0  0  0  0  0  0  0  0  0  0  0
    0.7801   -3.6395   30.0415 H   0  0  0  0  0  0  0  0  0  0  0  0
   -1.9981   -2.7920   31.8533 H   0  0  0  0  0  0  0  0  0  0  0  0
   -0.9813   -1.9172   32.9286 H   0  0  0  0  0  0  0  0  0  0  0  0
   -1.9651   -2.4227   29.3880 H   0  0  0  0  0  0  0  0  0  0  0  0
   -1.5967   -0.7895   27.6061 H   0  0  0  0  0  0  0  0  0  0  0  0
   -0.1821    1.2080   28.0128 H   0  0  0  0  0  0  0  0  0  0  0  0
    0.8898    1.5336   30.2259 H   0  0  0  0  0  0  0  0  0  0  0  0
    0.5522   -0.1072   32.0283 H   0  0  0  0  0  0  0  0  0  0  0  0
  1  2  1  0
  2  3  1  0
  3  4  1  0
  4  5  2  0
  4  6  1  0
  6  7  2  3
  7  8  1  0
  8  9  1  0
  9 10  1  0
 10 11  1  0
 11 12  1  0
 12 13  1  0
 13 14  1  0
 14 15  1  0
 15 16  1  0
 16 17  1  0
 12 18  1  0
 18 19  1  0
 19 20  1  0
 20 21  1  0
 20 22  1  0
 22 23  1  0
 22 24  1  0
 24 25  1  0
 25 26  2  0
 26 27  1  0
 27 28  2  0
 28 29  1  0
 29 30  2  0
 17  8  1  0
 30 25  1  0
 20 11  1  0
 16 12  1  0
  1 31  1  0
  1 32  1  0
  1 33  1  0
  2 34  1  0
  2 35  1  0
  6 36  1  0
  7 37  1  0
  8 38  1  0
  9 39  1  0
  9 40  1  0
 10 41  1  0
 10 42  1  0
 11 43  1  0
 13 44  1  0
 13 45  1  0
 14 46  1  0
 14 47  1  0
 15 48  1  0
 15 49  1  0
 16 50  1  0
 17 51  1  0
 17 52  1  0
 18 53  1  0
 18 54  1  0
 19 55  1  0
 19 56  1  0
 21 57  1  0
 23 58  1  0
 23 59  1  0
 23 60  1  0
 24 61  1  0
 24 62  1  0
 26 63  1  0
 27 64  1  0
 28 65  1  0
 29 66  1  0
 30 67  1  0
M  END
>  <Energy>  (1103) 
74.679153440604196

>  <compound_id>  (1103) 
3895

>  <target_id>  (1103) 
1

>  <reference_id>  (1103) 
78

>  <inspiration_ids>  (1103) 
[134, 78]

>  <energy_score>  (1103) 
-54.69136626603219

>  <distance_score>  (1103) 
1.9729730434163257

>  <path>  (1103) 
/opt/xchem-fragalysis-2/maxwin/BulkDock/SCRATCH/505734/C3895-P78/C3895-P78.minimised.mol

>  <scratch_subdir>  (1103) 
/opt/xchem-fragalysis-2/maxwin/BulkDock/SCRATCH/505734/C3895-P78

>  <fragmenstein_runtime>  (1103) 
26.34480094909668

>  <fragmenstein_outcome>  (1103) 
too moved

>  <fragmenstein_mode>  (1103) 
expansion

>  <fragmenstein_error>  (1103) 


$$$$
C3896-P134
     RDKit          3D

 58 60  0  0  0  0  0  0  0  0999 V2000
    3.9181   -7.3878   38.4641 C   0  0  0  0  0  0  0  0  0  0  0  0
    5.0099   -6.9007   37.5295 C   0  0  0  0  0  0  0  0  0  0  0  0
    4.4601   -6.0882   36.4821 O   0  0  0  0  0  0  0  0  0  0  0  0
    3.9761   -6.7670   35.4180 C   0  0  0  0  0  0  0  0  0  0  0  0
    3.9456   -7.9755   35.2512 O   0  0  0  0  0  0  0  0  0  0  0  0
    3.5245   -5.7985   34.4058 C   0  0  0  0  0  0  0  0  0  0  0  0
    2.2546   -5.5279   34.0617 C   0  0  0  0  0  0  0  0  0  0  0  0
    0.9523   -5.9410   34.7091 C   0  0  0  0  0  0  0  0  0  0  0  0
    1.0006   -7.0686   35.7295 C   0  0  0  0  0  0  0  0  0  0  0  0
   -0.4537   -7.3494   36.0676 C   0  0  0  0  0  0  0  0  0  0  0  0
   -1.2884   -6.6964   34.9768 C   0  0  0  0  0  0  0  0  0  0  0  0
   -0.3104   -6.3393   33.8411 C   0  0  0  0  0  0  0  0  0  0  0  0
   -0.1172   -7.5214   32.9832 N   0  0  0  0  0  0  0  0  0  0  0  0
   -0.5416   -7.1337   31.6241 N   0  0  0  0  0  0  0  0  0  0  0  0
   -0.3526   -5.6921   31.6351 C   0  0  0  0  0  0  0  0  0  0  0  0
   -0.8771   -5.3580   32.9363 N   0  0  0  0  0  0  0  0  0  0  0  0
   -0.6972   -3.9647   33.3254 C   0  0  0  0  0  0  0  0  0  0  0  0
   -1.6675   -3.0443   32.5794 C   0  0  0  0  0  0  0  0  0  0  0  0
   -2.5384   -3.4088   31.8755 O   0  0  0  0  0  0  0  0  0  0  0  0
   -1.1725   -1.6402   32.8848 N   0  0  0  0  0  0  0  0  0  0  0  0
   -1.8951   -1.0531   34.0708 C   0  0  0  0  0  0  0  0  0  0  0  0
   -1.5741   -0.3200   32.3089 C   0  0  0  0  0  0  0  0  0  0  0  0
   -0.9569   -0.2544   30.9108 C   0  0  0  0  0  0  0  0  0  0  0  0
   -1.4110   -1.1008   29.8894 C   0  0  0  0  0  0  0  0  0  0  0  0
   -0.9148   -0.9938   28.5957 C   0  0  0  0  0  0  0  0  0  0  0  0
    0.0593   -0.0455   28.3123 C   0  0  0  0  0  0  0  0  0  0  0  0
    0.5473    0.7812   29.3206 C   0  0  0  0  0  0  0  0  0  0  0  0
    0.0501    0.6721   30.6177 C   0  0  0  0  0  0  0  0  0  0  0  0
    3.3252   -6.5465   38.8373 H   0  0  0  0  0  0  0  0  0  0  0  0
    3.2288   -8.0617   37.9461 H   0  0  0  0  0  0  0  0  0  0  0  0
    4.3483   -7.9238   39.3150 H   0  0  0  0  0  0  0  0  0  0  0  0
    5.7120   -6.2699   38.0846 H   0  0  0  0  0  0  0  0  0  0  0  0
    5.5866   -7.7375   37.1179 H   0  0  0  0  0  0  0  0  0  0  0  0
    4.3420   -5.3184   33.8770 H   0  0  0  0  0  0  0  0  0  0  0  0
    2.1445   -4.8115   33.2507 H   0  0  0  0  0  0  0  0  0  0  0  0
    0.6739   -5.0452   35.2871 H   0  0  0  0  0  0  0  0  0  0  0  0
    1.4567   -7.9635   35.3013 H   0  0  0  0  0  0  0  0  0  0  0  0
    1.5529   -6.7961   36.6332 H   0  0  0  0  0  0  0  0  0  0  0  0
   -0.6502   -8.4190   36.1273 H   0  0  0  0  0  0  0  0  0  0  0  0
   -0.7032   -6.9155   37.0415 H   0  0  0  0  0  0  0  0  0  0  0  0
   -1.7187   -5.7912   35.4148 H   0  0  0  0  0  0  0  0  0  0  0  0
   -2.1175   -7.3395   34.6662 H   0  0  0  0  0  0  0  0  0  0  0  0
   -0.6987   -8.2925   33.3327 H   0  0  0  0  0  0  0  0  0  0  0  0
   -1.5544   -7.2628   31.5549 H   0  0  0  0  0  0  0  0  0  0  0  0
   -0.8900   -5.2139   30.8166 H   0  0  0  0  0  0  0  0  0  0  0  0
    0.7092   -5.4453   31.5133 H   0  0  0  0  0  0  0  0  0  0  0  0
    0.3228   -3.6136   33.1415 H   0  0  0  0  0  0  0  0  0  0  0  0
   -0.9237   -3.8349   34.3887 H   0  0  0  0  0  0  0  0  0  0  0  0
   -2.9835   -0.9339   33.9452 H   0  0  0  0  0  0  0  0  0  0  0  0
   -1.3887   -0.2036   34.5545 H   0  0  0  0  0  0  0  0  0  0  0  0
   -1.8382   -1.8310   34.8466 H   0  0  0  0  0  0  0  0  0  0  0  0
   -1.1708    0.5652   32.8272 H   0  0  0  0  0  0  0  0  0  0  0  0
   -2.6575   -0.2377   32.1194 H   0  0  0  0  0  0  0  0  0  0  0  0
   -2.1729   -1.8453   30.0855 H   0  0  0  0  0  0  0  0  0  0  0  0
   -1.3034   -1.6380   27.8108 H   0  0  0  0  0  0  0  0  0  0  0  0
    0.4435    0.0490   27.3036 H   0  0  0  0  0  0  0  0  0  0  0  0
    1.3123    1.5183   29.0908 H   0  0  0  0  0  0  0  0  0  0  0  0
    0.4417    1.3354   31.3845 H   0  0  0  0  0  0  0  0  0  0  0  0
  1  2  1  0
  2  3  1  0
  3  4  1  0
  4  5  2  0
  4  6  1  0
  6  7  2  3
  7  8  1  0
  8  9  1  0
  9 10  1  0
 10 11  1  0
 11 12  1  0
 12 13  1  0
 13 14  1  0
 14 15  1  0
 15 16  1  0
 16 17  1  0
 17 18  1  0
 18 19  2  0
 18 20  1  0
 20 21  1  0
 20 22  1  0
 22 23  1  0
 23 24  2  0
 24 25  1  0
 25 26  2  0
 26 27  1  0
 27 28  2  0
 12  8  1  0
 28 23  1  0
 16 12  1  0
  1 29  1  0
  1 30  1  0
  1 31  1  0
  2 32  1  0
  2 33  1  0
  6 34  1  0
  7 35  1  0
  8 36  1  0
  9 37  1  0
  9 38  1  0
 10 39  1  0
 10 40  1  0
 11 41  1  0
 11 42  1  0
 13 43  1  0
 14 44  1  0
 15 45  1  0
 15 46  1  0
 17 47  1  0
 17 48  1  0
 21 49  1  0
 21 50  1  0
 21 51  1  0
 22 52  1  0
 22 53  1  0
 24 54  1  0
 25 55  1  0
 26 56  1  0
 27 57  1  0
 28 58  1  0
M  END
>  <Energy>  (1104) 
163.41248678186352

>  <compound_id>  (1104) 
3896

>  <target_id>  (1104) 
1

>  <reference_id>  (1104) 
134

>  <inspiration_ids>  (1104) 
[134, 105]

>  <energy_score>  (1104) 
27.694406509050623

>  <distance_score>  (1104) 
1.702024171193573

>  <path>  (1104) 
/opt/xchem-fragalysis-2/maxwin/BulkDock/SCRATCH/505734/C3896-P134/C3896-P134.minimised.mol

>  <scratch_subdir>  (1104) 
/opt/xchem-fragalysis-2/maxwin/BulkDock/SCRATCH/505734/C3896-P134

>  <fragmenstein_runtime>  (1104) 
7.287155866622925

>  <fragmenstein_outcome>  (1104) 
too moved

>  <fragmenstein_mode>  (1104) 
expansion

>  <fragmenstein_error>  (1104) 


$$$$
C3896-P105
     RDKit          3D

 58 60  0  0  0  0  0  0  0  0999 V2000
    6.9637   -9.1559   34.4832 C   0  0  0  0  0  0  0  0  0  0  0  0
    5.7039   -9.9917   34.6069 C   0  0  0  0  0  0  0  0  0  0  0  0
    4.5420   -9.1481   34.6689 O   0  0  0  0  0  0  0  0  0  0  0  0
    4.2131   -8.6948   35.8996 C   0  0  0  0  0  0  0  0  0  0  0  0
    4.8300   -8.8803   36.9355 O   0  0  0  0  0  0  0  0  0  0  0  0
    2.9133   -7.9924   35.8622 C   0  0  0  0  0  0  0  0  0  0  0  0
    2.4120   -7.2938   34.8253 C   0  0  0  0  0  0  0  0  0  0  0  0
    1.0857   -6.5722   34.8174 C   0  0  0  0  0  0  0  0  0  0  0  0
    0.1539   -6.9898   35.9641 C   0  0  0  0  0  0  0  0  0  0  0  0
   -1.2403   -6.5796   35.5401 C   0  0  0  0  0  0  0  0  0  0  0  0
   -1.0798   -5.9647   34.1633 C   0  0  0  0  0  0  0  0  0  0  0  0
    0.1514   -6.6144   33.5444 C   0  0  0  0  0  0  0  0  0  0  0  0
   -0.2244   -7.9524   33.0888 N   0  0  0  0  0  0  0  0  0  0  0  0
   -0.6445   -7.8290   31.7050 N   0  0  0  0  0  0  0  0  0  0  0  0
    0.0697   -6.6615   31.1976 C   0  0  0  0  0  0  0  0  0  0  0  0
    0.7043   -6.0303   32.3400 N   0  0  0  0  0  0  0  0  0  0  0  0
    0.8496   -4.5770   32.2364 C   0  0  0  0  0  0  0  0  0  0  0  0
   -0.4674   -3.7638   32.1260 C   0  0  0  0  0  0  0  0  0  0  0  0
   -1.4962   -4.2096   31.7650 O   0  0  0  0  0  0  0  0  0  0  0  0
   -0.0828   -2.3332   32.4750 N   0  0  0  0  0  0  0  0  0  0  0  0
   -0.3117   -2.0481   33.9373 C   0  0  0  0  0  0  0  0  0  0  0  0
   -0.8676   -1.0535   32.3659 C   0  0  0  0  0  0  0  0  0  0  0  0
   -0.8507   -0.6819   30.8810 C   0  0  0  0  0  0  0  0  0  0  0  0
   -1.5942   -1.4211   29.9476 C   0  0  0  0  0  0  0  0  0  0  0  0
   -1.5375   -1.1108   28.5901 C   0  0  0  0  0  0  0  0  0  0  0  0
   -0.7542   -0.0485   28.1515 C   0  0  0  0  0  0  0  0  0  0  0  0
   -0.0112    0.6940   29.0657 C   0  0  0  0  0  0  0  0  0  0  0  0
   -0.0485    0.3729   30.4231 C   0  0  0  0  0  0  0  0  0  0  0  0
    6.9064   -8.4961   33.6118 H   0  0  0  0  0  0  0  0  0  0  0  0
    7.0983   -8.5143   35.3596 H   0  0  0  0  0  0  0  0  0  0  0  0
    7.8442   -9.7968   34.3814 H   0  0  0  0  0  0  0  0  0  0  0  0
    5.5921  -10.6221   33.7186 H   0  0  0  0  0  0  0  0  0  0  0  0
    5.7504  -10.6623   35.4727 H   0  0  0  0  0  0  0  0  0  0  0  0
    2.3894   -8.0664   36.8100 H   0  0  0  0  0  0  0  0  0  0  0  0
    2.9997   -7.1459   33.9281 H   0  0  0  0  0  0  0  0  0  0  0  0
    1.3442   -5.5150   34.9863 H   0  0  0  0  0  0  0  0  0  0  0  0
    0.4370   -6.5073   36.9065 H   0  0  0  0  0  0  0  0  0  0  0  0
    0.1631   -8.0738   36.1332 H   0  0  0  0  0  0  0  0  0  0  0  0
   -1.8892   -7.4593   35.4927 H   0  0  0  0  0  0  0  0  0  0  0  0
   -1.6810   -5.8664   36.2420 H   0  0  0  0  0  0  0  0  0  0  0  0
   -0.9503   -4.8900   34.3055 H   0  0  0  0  0  0  0  0  0  0  0  0
   -1.9517   -6.1312   33.5468 H   0  0  0  0  0  0  0  0  0  0  0  0
   -0.9442   -8.3790   33.6808 H   0  0  0  0  0  0  0  0  0  0  0  0
   -0.3348   -8.6467   31.1690 H   0  0  0  0  0  0  0  0  0  0  0  0
   -0.6323   -6.0383   30.6431 H   0  0  0  0  0  0  0  0  0  0  0  0
    0.8436   -6.9722   30.4877 H   0  0  0  0  0  0  0  0  0  0  0  0
    1.4347   -4.3464   31.3367 H   0  0  0  0  0  0  0  0  0  0  0  0
    1.4432   -4.2135   33.0812 H   0  0  0  0  0  0  0  0  0  0  0  0
   -1.3575   -2.1384   34.2717 H   0  0  0  0  0  0  0  0  0  0  0  0
    0.2292   -1.1751   34.3338 H   0  0  0  0  0  0  0  0  0  0  0  0
    0.1780   -2.8794   34.4653 H   0  0  0  0  0  0  0  0  0  0  0  0
   -0.4409   -0.1709   32.8705 H   0  0  0  0  0  0  0  0  0  0  0  0
   -1.9368   -1.1853   32.6029 H   0  0  0  0  0  0  0  0  0  0  0  0
   -2.2142   -2.2560   30.2639 H   0  0  0  0  0  0  0  0  0  0  0  0
   -2.1050   -1.6963   27.8688 H   0  0  0  0  0  0  0  0  0  0  0  0
   -0.7255    0.1912   27.0923 H   0  0  0  0  0  0  0  0  0  0  0  0
    0.6012    1.5214   28.7170 H   0  0  0  0  0  0  0  0  0  0  0  0
    0.5574    0.9532   31.1143 H   0  0  0  0  0  0  0  0  0  0  0  0
  1  2  1  0
  2  3  1  0
  3  4  1  0
  4  5  2  0
  4  6  1  0
  6  7  2  3
  7  8  1  0
  8  9  1  0
  9 10  1  0
 10 11  1  0
 11 12  1  0
 12 13  1  0
 13 14  1  0
 14 15  1  0
 15 16  1  0
 16 17  1  0
 17 18  1  0
 18 19  2  0
 18 20  1  0
 20 21  1  0
 20 22  1  0
 22 23  1  0
 23 24  2  0
 24 25  1  0
 25 26  2  0
 26 27  1  0
 27 28  2  0
 12  8  1  0
 28 23  1  0
 16 12  1  0
  1 29  1  0
  1 30  1  0
  1 31  1  0
  2 32  1  0
  2 33  1  0
  6 34  1  0
  7 35  1  0
  8 36  1  0
  9 37  1  0
  9 38  1  0
 10 39  1  0
 10 40  1  0
 11 41  1  0
 11 42  1  0
 13 43  1  0
 14 44  1  0
 15 45  1  0
 15 46  1  0
 17 47  1  0
 17 48  1  0
 21 49  1  0
 21 50  1  0
 21 51  1  0
 22 52  1  0
 22 53  1  0
 24 54  1  0
 25 55  1  0
 26 56  1  0
 27 57  1  0
 28 58  1  0
M  END
>  <Energy>  (1105) 
158.10848844990107

>  <compound_id>  (1105) 
3896

>  <target_id>  (1105) 
1

>  <reference_id>  (1105) 
105

>  <inspiration_ids>  (1105) 
[134, 105]

>  <energy_score>  (1105) 
22.39040817708519

>  <distance_score>  (1105) 
1.3230667014325106

>  <path>  (1105) 
/opt/xchem-fragalysis-2/maxwin/BulkDock/SCRATCH/505734/C3896-P105/C3896-P105.minimised.mol

>  <scratch_subdir>  (1105) 
/opt/xchem-fragalysis-2/maxwin/BulkDock/SCRATCH/505734/C3896-P105

>  <fragmenstein_runtime>  (1105) 
5.84655499458313

>  <fragmenstein_outcome>  (1105) 
too moved

>  <fragmenstein_mode>  (1105) 
expansion

>  <fragmenstein_error>  (1105) 


$$$$
C3898-P134
     RDKit          3D

 46 46  0  0  0  0  0  0  0  0999 V2000
   -1.0831   -1.8381   28.4946 C   0  0  0  0  0  0  0  0  0  0  0  0
   -1.4054   -1.0692   29.7578 C   0  0  0  0  0  0  0  0  0  0  0  0
   -0.1522   -0.7431   30.6018 C   0  0  0  0  0  0  0  0  0  0  0  0
    0.3363    0.6907   30.3246 C   0  0  0  0  0  0  0  0  0  0  0  0
    0.5379    1.0367   28.8596 C   0  0  0  0  0  0  0  0  0  0  0  0
   -0.4629   -0.9851   32.1138 C   0  0  0  0  0  0  0  0  0  0  0  0
    0.2477   -0.0257   33.0955 C   0  0  0  0  0  0  0  0  0  0  0  0
   -0.2254   -2.4167   32.4078 N   0  0  0  0  0  0  0  0  0  0  0  0
    1.1411   -2.6785   32.8540 C   0  0  0  0  0  0  0  0  0  0  0  0
   -1.3121   -3.2143   32.9924 C   0  0  0  0  0  0  0  0  0  0  0  0
   -2.1706   -3.5590   31.9217 O   0  0  0  0  0  0  0  0  0  0  0  0
   -0.7791   -4.6073   33.6081 C   0  0  0  0  0  0  0  0  0  0  0  0
   -0.7324   -5.7706   32.7366 N   0  0  0  0  0  0  0  0  0  0  0  0
   -0.2860   -5.8628   31.4528 C   0  0  0  0  0  0  0  0  0  0  0  0
   -0.4665   -7.0846   31.0019 N   0  0  0  0  0  0  0  0  0  0  0  0
   -1.0080   -7.8249   32.0231 N   0  0  0  0  0  0  0  0  0  0  0  0
   -1.1384   -7.0333   33.0647 C   0  0  0  0  0  0  0  0  0  0  0  0
   -2.0388   -2.4176   33.9826 N   0  0  0  0  0  0  0  0  0  0  0  0
   -3.3367   -1.8283   33.6469 C   0  0  0  0  0  0  0  0  0  0  0  0
   -0.2841   -1.3694   27.9184 H   0  0  0  0  0  0  0  0  0  0  0  0
   -0.7749   -2.8614   28.7317 H   0  0  0  0  0  0  0  0  0  0  0  0
   -1.9703   -1.8807   27.8587 H   0  0  0  0  0  0  0  0  0  0  0  0
   -2.1417   -1.6417   30.3217 H   0  0  0  0  0  0  0  0  0  0  0  0
   -1.9262   -0.1414   29.4945 H   0  0  0  0  0  0  0  0  0  0  0  0
    0.6645   -1.4129   30.2978 H   0  0  0  0  0  0  0  0  0  0  0  0
    1.2995    0.8457   30.8249 H   0  0  0  0  0  0  0  0  0  0  0  0
   -0.3594    1.4135   30.7522 H   0  0  0  0  0  0  0  0  0  0  0  0
   -0.4012    1.0467   28.2999 H   0  0  0  0  0  0  0  0  0  0  0  0
    1.2309    0.3376   28.3814 H   0  0  0  0  0  0  0  0  0  0  0  0
    0.9715    2.0390   28.7734 H   0  0  0  0  0  0  0  0  0  0  0  0
   -1.5140   -0.7293   32.2116 H   0  0  0  0  0  0  0  0  0  0  0  0
    0.0628   -0.3045   34.1377 H   0  0  0  0  0  0  0  0  0  0  0  0
    1.3313    0.0070   32.9468 H   0  0  0  0  0  0  0  0  0  0  0  0
   -0.1350    0.9945   32.9835 H   0  0  0  0  0  0  0  0  0  0  0  0
    1.2709   -2.4877   33.9246 H   0  0  0  0  0  0  0  0  0  0  0  0
    1.8677   -2.0655   32.3077 H   0  0  0  0  0  0  0  0  0  0  0  0
    1.4531   -3.7021   32.6263 H   0  0  0  0  0  0  0  0  0  0  0  0
   -1.6167   -3.3485   31.1518 H   0  0  0  0  0  0  0  0  0  0  0  0
   -1.3931   -4.8980   34.4620 H   0  0  0  0  0  0  0  0  0  0  0  0
    0.2034   -4.5227   34.0824 H   0  0  0  0  0  0  0  0  0  0  0  0
    0.1294   -5.0384   30.8913 H   0  0  0  0  0  0  0  0  0  0  0  0
   -1.5236   -7.3197   34.0355 H   0  0  0  0  0  0  0  0  0  0  0  0
   -1.4204   -1.7626   34.4366 H   0  0  0  0  0  0  0  0  0  0  0  0
   -4.0358   -2.5579   33.2289 H   0  0  0  0  0  0  0  0  0  0  0  0
   -3.2809   -0.9873   32.9551 H   0  0  0  0  0  0  0  0  0  0  0  0
   -3.7914   -1.4506   34.5688 H   0  0  0  0  0  0  0  0  0  0  0  0
  1  2  1  0
  2  3  1  0
  3  4  1  0
  4  5  1  0
  3  6  1  0
  6  7  1  0
  6  8  1  0
  8  9  1  0
  8 10  1  0
 10 11  1  0
 10 12  1  0
 12 13  1  0
 13 14  1  0
 14 15  2  0
 15 16  1  0
 16 17  2  0
 10 18  1  0
 18 19  1  0
 17 13  1  0
  1 20  1  0
  1 21  1  0
  1 22  1  0
  2 23  1  0
  2 24  1  0
  3 25  1  0
  4 26  1  0
  4 27  1  0
  5 28  1  0
  5 29  1  0
  5 30  1  0
  6 31  1  0
  7 32  1  0
  7 33  1  0
  7 34  1  0
  9 35  1  0
  9 36  1  0
  9 37  1  0
 11 38  1  0
 12 39  1  0
 12 40  1  0
 14 41  1  0
 17 42  1  0
 18 43  1  0
 19 44  1  0
 19 45  1  0
 19 46  1  0
M  END
>  <Energy>  (1106) 
-49.796072112190124

>  <compound_id>  (1106) 
3898

>  <target_id>  (1106) 
1

>  <reference_id>  (1106) 
134

>  <inspiration_ids>  (1106) 
[134, 121]

>  <energy_score>  (1106) 
-49.15203723022546

>  <distance_score>  (1106) 
1.7828887340301107

>  <path>  (1106) 
/opt/xchem-fragalysis-2/maxwin/BulkDock/SCRATCH/505734/C3898-P134/C3898-P134.minimised.mol

>  <scratch_subdir>  (1106) 
/opt/xchem-fragalysis-2/maxwin/BulkDock/SCRATCH/505734/C3898-P134

>  <fragmenstein_runtime>  (1106) 
24.95164918899536

>  <fragmenstein_outcome>  (1106) 
too moved

>  <fragmenstein_mode>  (1106) 
expansion

>  <fragmenstein_error>  (1106) 


$$$$
C3898-P121
     RDKit          3D

 46 46  0  0  0  0  0  0  0  0999 V2000
    0.7640   -1.9642   28.4827 C   0  0  0  0  0  0  0  0  0  0  0  0
   -0.0733   -2.0369   29.7409 C   0  0  0  0  0  0  0  0  0  0  0  0
    0.1225   -0.8655   30.7250 C   0  0  0  0  0  0  0  0  0  0  0  0
    0.0773    0.4942   29.9906 C   0  0  0  0  0  0  0  0  0  0  0  0
   -1.1965    0.7518   29.2084 C   0  0  0  0  0  0  0  0  0  0  0  0
   -0.8653   -0.9529   31.9375 C   0  0  0  0  0  0  0  0  0  0  0  0
   -0.8330    0.3364   32.7907 C   0  0  0  0  0  0  0  0  0  0  0  0
   -0.6956   -2.0959   32.8596 N   0  0  0  0  0  0  0  0  0  0  0  0
    0.6519   -2.2194   33.4068 C   0  0  0  0  0  0  0  0  0  0  0  0
   -1.4651   -3.3221   32.6176 C   0  0  0  0  0  0  0  0  0  0  0  0
   -1.7553   -3.5114   31.2621 O   0  0  0  0  0  0  0  0  0  0  0  0
   -0.6259   -4.6582   33.0374 C   0  0  0  0  0  0  0  0  0  0  0  0
   -0.9819   -5.9618   32.5087 N   0  0  0  0  0  0  0  0  0  0  0  0
   -0.7968   -6.4113   31.2337 C   0  0  0  0  0  0  0  0  0  0  0  0
   -1.2783   -7.6312   31.1199 N   0  0  0  0  0  0  0  0  0  0  0  0
   -1.6100   -8.0554   32.3845 N   0  0  0  0  0  0  0  0  0  0  0  0
   -1.3214   -7.0768   33.2164 C   0  0  0  0  0  0  0  0  0  0  0  0
   -2.8049   -3.1734   33.1924 N   0  0  0  0  0  0  0  0  0  0  0  0
   -3.4603   -1.8956   33.4378 C   0  0  0  0  0  0  0  0  0  0  0  0
    0.4480   -1.1636   27.8128 H   0  0  0  0  0  0  0  0  0  0  0  0
    1.8206   -1.8090   28.7254 H   0  0  0  0  0  0  0  0  0  0  0  0
    0.6914   -2.9104   27.9403 H   0  0  0  0  0  0  0  0  0  0  0  0
    0.2243   -2.9645   30.2403 H   0  0  0  0  0  0  0  0  0  0  0  0
   -1.1224   -2.1186   29.4379 H   0  0  0  0  0  0  0  0  0  0  0  0
    1.1458   -0.9375   31.1176 H   0  0  0  0  0  0  0  0  0  0  0  0
    0.9242    0.5558   29.2956 H   0  0  0  0  0  0  0  0  0  0  0  0
    0.2464    1.3210   30.6883 H   0  0  0  0  0  0  0  0  0  0  0  0
   -1.3830   -0.0025   28.4402 H   0  0  0  0  0  0  0  0  0  0  0  0
   -1.1301    1.7155   28.6945 H   0  0  0  0  0  0  0  0  0  0  0  0
   -2.0658    0.7746   29.8688 H   0  0  0  0  0  0  0  0  0  0  0  0
   -1.8688   -0.9759   31.5054 H   0  0  0  0  0  0  0  0  0  0  0  0
   -1.3573    0.2137   33.7436 H   0  0  0  0  0  0  0  0  0  0  0  0
    0.1894    0.6586   33.0136 H   0  0  0  0  0  0  0  0  0  0  0  0
   -1.3405    1.1544   32.2719 H   0  0  0  0  0  0  0  0  0  0  0  0
    1.0561   -1.2521   33.7216 H   0  0  0  0  0  0  0  0  0  0  0  0
    1.3579   -2.6424   32.6850 H   0  0  0  0  0  0  0  0  0  0  0  0
    0.6587   -2.8256   34.3186 H   0  0  0  0  0  0  0  0  0  0  0  0
   -2.5611   -2.9853   31.1496 H   0  0  0  0  0  0  0  0  0  0  0  0
   -0.5809   -4.7368   34.1303 H   0  0  0  0  0  0  0  0  0  0  0  0
    0.4052   -4.5515   32.6785 H   0  0  0  0  0  0  0  0  0  0  0  0
   -0.3665   -5.8160   30.4402 H   0  0  0  0  0  0  0  0  0  0  0  0
   -1.3791   -7.1182   34.2956 H   0  0  0  0  0  0  0  0  0  0  0  0
   -2.7890   -3.6935   34.0794 H   0  0  0  0  0  0  0  0  0  0  0  0
   -3.6234   -1.3250   32.5240 H   0  0  0  0  0  0  0  0  0  0  0  0
   -2.9273   -1.2991   34.1811 H   0  0  0  0  0  0  0  0  0  0  0  0
   -4.4554   -2.0943   33.8510 H   0  0  0  0  0  0  0  0  0  0  0  0
  1  2  1  0
  2  3  1  0
  3  4  1  0
  4  5  1  0
  3  6  1  0
  6  7  1  0
  6  8  1  0
  8  9  1  0
  8 10  1  0
 10 11  1  0
 10 12  1  0
 12 13  1  0
 13 14  1  0
 14 15  2  0
 15 16  1  0
 16 17  2  0
 10 18  1  0
 18 19  1  0
 17 13  1  0
  1 20  1  0
  1 21  1  0
  1 22  1  0
  2 23  1  0
  2 24  1  0
  3 25  1  0
  4 26  1  0
  4 27  1  0
  5 28  1  0
  5 29  1  0
  5 30  1  0
  6 31  1  0
  7 32  1  0
  7 33  1  0
  7 34  1  0
  9 35  1  0
  9 36  1  0
  9 37  1  0
 11 38  1  0
 12 39  1  0
 12 40  1  0
 14 41  1  0
 17 42  1  0
 18 43  1  0
 19 44  1  0
 19 45  1  0
 19 46  1  0
M  END
>  <Energy>  (1107) 
-51.252103748062531

>  <compound_id>  (1107) 
3898

>  <target_id>  (1107) 
1

>  <reference_id>  (1107) 
121

>  <inspiration_ids>  (1107) 
[134, 121]

>  <energy_score>  (1107) 
-50.608068866095465

>  <distance_score>  (1107) 
1.5699453815534428

>  <path>  (1107) 
/opt/xchem-fragalysis-2/maxwin/BulkDock/SCRATCH/505734/C3898-P121/C3898-P121.minimised.mol

>  <scratch_subdir>  (1107) 
/opt/xchem-fragalysis-2/maxwin/BulkDock/SCRATCH/505734/C3898-P121

>  <fragmenstein_runtime>  (1107) 
23.456681728363037

>  <fragmenstein_outcome>  (1107) 
too moved

>  <fragmenstein_mode>  (1107) 
expansion

>  <fragmenstein_error>  (1107) 


$$$$
C3858-P134
     RDKit          3D

 34 35  0  0  0  0  0  0  0  0999 V2000
   -1.2597   -7.3263   34.3514 C   0  0  0  0  0  0  0  0  0  0  0  0
   -1.0140   -7.2590   32.8904 C   0  0  0  0  0  0  0  0  0  0  0  0
   -1.3162   -8.1894   32.0045 N   0  0  0  0  0  0  0  0  0  0  0  0
   -0.9160   -7.7615   30.7631 N   0  0  0  0  0  0  0  0  0  0  0  0
   -0.3769   -6.5767   30.9156 C   0  0  0  0  0  0  0  0  0  0  0  0
   -0.4285   -6.2121   32.2284 N   0  0  0  0  0  0  0  0  0  0  0  0
    0.0091   -4.9333   32.7536 C   0  0  0  0  0  0  0  0  0  0  0  0
   -1.0017   -3.8296   32.4503 C   0  0  0  0  0  0  0  0  0  0  0  0
   -2.0408   -4.0390   31.9427 O   0  0  0  0  0  0  0  0  0  0  0  0
   -0.3526   -2.5204   32.8505 N   0  0  0  0  0  0  0  0  0  0  0  0
   -0.7166   -2.1405   34.2644 C   0  0  0  0  0  0  0  0  0  0  0  0
   -0.7980   -1.0885   32.6257 C   0  0  0  0  0  0  0  0  0  0  0  0
   -0.6293   -0.7533   31.1365 C   0  0  0  0  0  0  0  0  0  0  0  0
   -1.3400   -1.4477   30.1443 C   0  0  0  0  0  0  0  0  0  0  0  0
   -1.2131   -1.1109   28.7964 C   0  0  0  0  0  0  0  0  0  0  0  0
   -0.3959   -0.0521   28.4220 C   0  0  0  0  0  0  0  0  0  0  0  0
    0.3088    0.6567   29.3909 C   0  0  0  0  0  0  0  0  0  0  0  0
    0.2001    0.3050   30.7387 C   0  0  0  0  0  0  0  0  0  0  0  0
   -0.3874   -7.7428   34.8631 H   0  0  0  0  0  0  0  0  0  0  0  0
   -2.1241   -7.9595   34.5673 H   0  0  0  0  0  0  0  0  0  0  0  0
   -1.4628   -6.3409   34.7774 H   0  0  0  0  0  0  0  0  0  0  0  0
    0.0213   -5.9475   30.1322 H   0  0  0  0  0  0  0  0  0  0  0  0
    0.9681   -4.6987   32.2786 H   0  0  0  0  0  0  0  0  0  0  0  0
    0.1619   -5.0289   33.8310 H   0  0  0  0  0  0  0  0  0  0  0  0
   -1.7935   -1.9950   34.4450 H   0  0  0  0  0  0  0  0  0  0  0  0
   -0.0614   -1.3925   34.7357 H   0  0  0  0  0  0  0  0  0  0  0  0
   -0.5047   -3.0444   34.8551 H   0  0  0  0  0  0  0  0  0  0  0  0
   -1.8779   -0.9329   32.7909 H   0  0  0  0  0  0  0  0  0  0  0  0
   -0.1803   -0.3409   33.1491 H   0  0  0  0  0  0  0  0  0  0  0  0
   -2.0236   -2.2497   30.4011 H   0  0  0  0  0  0  0  0  0  0  0  0
   -1.7704   -1.6610   28.0389 H   0  0  0  0  0  0  0  0  0  0  0  0
   -0.3189    0.2218   27.3743 H   0  0  0  0  0  0  0  0  0  0  0  0
    0.9424    1.4889   29.0943 H   0  0  0  0  0  0  0  0  0  0  0  0
    0.7633    0.8787   31.4707 H   0  0  0  0  0  0  0  0  0  0  0  0
  1  2  1  0
  2  3  2  0
  3  4  1  0
  4  5  2  0
  5  6  1  0
  6  7  1  0
  7  8  1  0
  8  9  2  0
  8 10  1  0
 10 11  1  0
 10 12  1  0
 12 13  1  0
 13 14  2  0
 14 15  1  0
 15 16  2  0
 16 17  1  0
 17 18  2  0
  6  2  1  0
 18 13  1  0
  1 19  1  0
  1 20  1  0
  1 21  1  0
  5 22  1  0
  7 23  1  0
  7 24  1  0
 11 25  1  0
 11 26  1  0
 11 27  1  0
 12 28  1  0
 12 29  1  0
 14 30  1  0
 15 31  1  0
 16 32  1  0
 17 33  1  0
 18 34  1  0
M  END
>  <Energy>  (1108) 
89.646333806434242

>  <compound_id>  (1108) 
3858

>  <target_id>  (1108) 
1

>  <reference_id>  (1108) 
134

>  <inspiration_ids>  (1108) 
[134, 128]

>  <energy_score>  (1108) 
68.28604493416867

>  <distance_score>  (1108) 
1.4625098310969864

>  <path>  (1108) 
/opt/xchem-fragalysis-2/maxwin/BulkDock/SCRATCH/505734/C3858-P134/C3858-P134.minimised.mol

>  <scratch_subdir>  (1108) 
/opt/xchem-fragalysis-2/maxwin/BulkDock/SCRATCH/505734/C3858-P134

>  <fragmenstein_runtime>  (1108) 
2.0914368629455566

>  <fragmenstein_outcome>  (1108) 
too moved

>  <fragmenstein_mode>  (1108) 
expansion

>  <fragmenstein_error>  (1108) 


$$$$
C3858-P128
     RDKit          3D

 34 35  0  0  0  0  0  0  0  0999 V2000
   -1.1520   -7.1092   34.4034 C   0  0  0  0  0  0  0  0  0  0  0  0
   -1.0046   -7.2662   32.9378 C   0  0  0  0  0  0  0  0  0  0  0  0
   -1.6956   -8.0889   32.1725 N   0  0  0  0  0  0  0  0  0  0  0  0
   -1.1999   -8.0259   30.8986 N   0  0  0  0  0  0  0  0  0  0  0  0
   -0.2067   -7.1744   30.9155 C   0  0  0  0  0  0  0  0  0  0  0  0
   -0.0972   -6.6046   32.1505 N   0  0  0  0  0  0  0  0  0  0  0  0
    0.8922   -5.6116   32.5339 C   0  0  0  0  0  0  0  0  0  0  0  0
    0.5037   -4.1382   32.3345 C   0  0  0  0  0  0  0  0  0  0  0  0
    1.0272   -3.2884   32.9589 O   0  0  0  0  0  0  0  0  0  0  0  0
   -0.5761   -4.0530   31.2782 N   0  0  0  0  0  0  0  0  0  0  0  0
    0.0182   -3.9018   29.9017 C   0  0  0  0  0  0  0  0  0  0  0  0
   -1.3833   -2.8608   30.7774 C   0  0  0  0  0  0  0  0  0  0  0  0
   -0.8960   -1.5338   30.2257 C   0  0  0  0  0  0  0  0  0  0  0  0
   -1.2560   -1.2180   28.9019 C   0  0  0  0  0  0  0  0  0  0  0  0
   -0.8583   -0.0255   28.3170 C   0  0  0  0  0  0  0  0  0  0  0  0
   -0.0983    0.8740   29.0508 C   0  0  0  0  0  0  0  0  0  0  0  0
    0.2611    0.5778   30.3672 C   0  0  0  0  0  0  0  0  0  0  0  0
   -0.1367   -0.6227   30.9603 C   0  0  0  0  0  0  0  0  0  0  0  0
   -0.2723   -7.5059   34.9194 H   0  0  0  0  0  0  0  0  0  0  0  0
   -2.0282   -7.6542   34.7661 H   0  0  0  0  0  0  0  0  0  0  0  0
   -1.2684   -6.0560   34.6738 H   0  0  0  0  0  0  0  0  0  0  0  0
    0.4387   -6.9463   30.0835 H   0  0  0  0  0  0  0  0  0  0  0  0
    1.8011   -5.8071   31.9544 H   0  0  0  0  0  0  0  0  0  0  0  0
    1.1240   -5.7701   33.5922 H   0  0  0  0  0  0  0  0  0  0  0  0
    0.7754   -3.1093   29.8172 H   0  0  0  0  0  0  0  0  0  0  0  0
   -0.6688   -4.0221   29.0505 H   0  0  0  0  0  0  0  0  0  0  0  0
    0.6675   -4.7809   29.7920 H   0  0  0  0  0  0  0  0  0  0  0  0
   -2.2105   -3.2391   30.1670 H   0  0  0  0  0  0  0  0  0  0  0  0
   -1.9078   -2.5649   31.7007 H   0  0  0  0  0  0  0  0  0  0  0  0
   -1.8518   -1.9053   28.2999 H   0  0  0  0  0  0  0  0  0  0  0  0
   -1.1477    0.1986   27.2932 H   0  0  0  0  0  0  0  0  0  0  0  0
    0.2109    1.8150   28.6021 H   0  0  0  0  0  0  0  0  0  0  0  0
    0.8575    1.2889   30.9339 H   0  0  0  0  0  0  0  0  0  0  0  0
    0.1553   -0.8446   31.9844 H   0  0  0  0  0  0  0  0  0  0  0  0
  1  2  1  0
  2  3  2  0
  3  4  1  0
  4  5  2  0
  5  6  1  0
  6  7  1  0
  7  8  1  0
  8  9  2  0
  8 10  1  0
 10 11  1  0
 10 12  1  0
 12 13  1  0
 13 14  2  0
 14 15  1  0
 15 16  2  0
 16 17  1  0
 17 18  2  0
  6  2  1  0
 18 13  1  0
  1 19  1  0
  1 20  1  0
  1 21  1  0
  5 22  1  0
  7 23  1  0
  7 24  1  0
 11 25  1  0
 11 26  1  0
 11 27  1  0
 12 28  1  0
 12 29  1  0
 14 30  1  0
 15 31  1  0
 16 32  1  0
 17 33  1  0
 18 34  1  0
M  END
>  <Energy>  (1109) 
102.35828464178266

>  <compound_id>  (1109) 
3858

>  <target_id>  (1109) 
1

>  <reference_id>  (1109) 
128

>  <inspiration_ids>  (1109) 
[134, 128]

>  <energy_score>  (1109) 
80.9979957695162

>  <distance_score>  (1109) 
1.9833149720379881

>  <path>  (1109) 
/opt/xchem-fragalysis-2/maxwin/BulkDock/SCRATCH/505734/C3858-P128/C3858-P128.minimised.mol

>  <scratch_subdir>  (1109) 
/opt/xchem-fragalysis-2/maxwin/BulkDock/SCRATCH/505734/C3858-P128

>  <fragmenstein_runtime>  (1109) 
3.1884024143218994

>  <fragmenstein_outcome>  (1109) 
too moved

>  <fragmenstein_mode>  (1109) 
expansion

>  <fragmenstein_error>  (1109) 


$$$$
